@<TRIPOS>MOLECULE
mol
37500 30000
SMALL
USER_CHARGES


@<TRIPOS>ATOM
1 C 130.1620759803232 70.71478471972775 185.25024490394796 C 0.0 **** -0.24
2 H 129.23249987466238 71.2827556537411 185.28044347504309 H 0.0 **** 0.06
3 H 130.77425417316408 70.97342061616362 186.11392771888714 H 0.0 **** 0.06
4 H 130.70385908524247 70.95405493161525 184.33538562101063 H 0.0 **** 0.06
5 H 129.93637068136798 69.64846848007888 185.27096889763442 H 0.0 **** 0.06
6 C 59.744311004548024 19.296977552478623 190.7619405030943 C 0.0 **** -0.24
7 H 59.051425315001694 20.054111231383814 190.39556680813826 H 0.0 **** 0.06
8 H 60.23436461373146 19.65869837228172 191.66654274544584 H 0.0 **** 0.06
9 H 60.49597373754264 19.09308843541487 189.99882317024876 H 0.0 **** 0.06
10 H 59.19620027154994 18.381520129328706 190.98633976582312 H 0.0 **** 0.06
11 C 196.45418299672093 188.1498677463212 158.0924150314314 C 0.0 **** -0.24
12 H 195.9531729723226 188.58549306732866 158.95668362953543 H 0.0 **** 0.06
13 H 197.4261761058528 187.75863807241282 158.3954322815357 H 0.0 **** 0.06
14 H 196.59355552986182 188.9155442473917 157.32926270409882 H 0.0 **** 0.06
15 H 195.84564427285972 187.34051141857003 157.68937082472362 H 0.0 **** 0.06
16 C 106.83305455470236 78.02461207214935 54.93206228766364 C 0.0 **** -0.24
17 H 105.7551619341499 77.87271836602459 54.98679325683764 H 0.0 **** 0.06
18 H 107.06603353156584 78.67625286693394 54.089831466081236 H 0.0 **** 0.06
19 H 107.32864055138725 77.06276854555804 54.79690958771572 H 0.0 **** 0.06
20 H 107.1817166969106 78.48618153610772 55.85622463028649 H 0.0 **** 0.06
21 C 162.98700249669963 52.1219616247013 164.93524896108656 C 0.0 **** -0.24
22 H 162.7433606851342 52.377538755471846 165.9663084515733 H 0.0 **** 0.06
23 H 162.60697204606888 52.89696327062397 164.26881741090313 H 0.0 **** 0.06
24 H 162.5296092007475 51.16665834069609 164.68010848028595 H 0.0 **** 0.06
25 H 164.06890375172964 52.04782485870025 164.82583189680568 H 0.0 **** 0.06
26 C 175.0183157959512 71.39151349688949 187.5246134892825 C 0.0 **** -0.24
27 H 175.0320134853335 72.47925345005005 187.44390482579732 H 0.0 **** 0.06
28 H 174.2986556728428 70.98426284183488 186.8141081030507 H 0.0 **** 0.06
29 H 174.73254654473033 71.10644725304883 188.53631691358504 H 0.0 **** 0.06
30 H 176.01063070466512 71.00005991609882 187.3027444337653 H 0.0 **** 0.06
31 C 88.823062768955 87.95162323140448 95.31542849043831 C 0.0 **** -0.24
32 H 89.85684114534703 87.81370655624016 95.63337181365586 H 0.0 **** 0.06
33 H 88.15756540197395 87.44489250293412 96.01405492703111 H 0.0 **** 0.06
34 H 88.6909124920673 87.53366336071349 94.31779753741307 H 0.0 **** 0.06
35 H 88.58866402158182 89.0164583323633 95.29750811896372 H 0.0 **** 0.06
36 C 69.25007082054367 198.37389504257538 104.43041434411407 C 0.0 **** -0.24
37 H 68.25498324316098 198.11396293078496 104.79174756672799 H 0.0 **** 0.06
38 H 69.66632867786697 197.5328325938038 103.8759713488611 H 0.0 **** 0.06
39 H 69.8951257541151 198.6058535244807 105.27839907076228 H 0.0 **** 0.06
40 H 69.18289640112155 199.24385791460602 103.77665300001533 H 0.0 **** 0.06
41 C 106.26332432930181 112.0889233128018 14.111440635906902 C 0.0 **** -0.24
42 H 105.91563655750971 113.04146752876429 14.508997390217928 H 0.0 **** 0.06
43 H 107.07224674423202 111.70697672100283 14.734478368893932 H 0.0 **** 0.06
44 H 106.62432231874175 112.23037612420805 13.092345815504352 H 0.0 **** 0.06
45 H 105.43937804652239 111.37505904258802 14.108275555722841 H 0.0 **** 0.06
46 C 169.19059579474302 117.37914069768735 178.82197525960612 C 0.0 **** -0.24
47 H 169.63427651806475 116.857316769926 177.97377192472717 H 0.0 **** 0.06
48 H 168.38493306346712 118.02359035263959 178.47011891058813 H 0.0 **** 0.06
49 H 169.95209267315943 117.98394825588704 179.31393155354414 H 0.0 **** 0.06
50 H 168.79250708928046 116.65124831243503 179.52814076143335 H 0.0 **** 0.06
51 C 183.17984987261963 67.95838553607814 172.76298845668956 C 0.0 **** -0.24
52 H 184.23641485972942 67.87573487782612 172.50808851604407 H 0.0 **** 0.06
53 H 182.60148469889828 67.28097298462939 172.1352626974208 H 0.0 **** 0.06
54 H 182.84621256889568 68.98351090606536 172.59682033527628 H 0.0 **** 0.06
55 H 183.03755945012583 67.6956788904447 173.81124431111152 H 0.0 **** 0.06
56 C 70.22552211516066 105.2104182978324 35.057231286382745 C 0.0 **** -0.24
57 H 71.14281122362411 104.62100940827355 35.07935730913158 H 0.0 **** 0.06
58 H 70.15717420928394 105.73895691701702 34.10643258379608 H 0.0 **** 0.06
59 H 70.23808125863229 105.93065535030132 35.87483052966934 H 0.0 **** 0.06
60 H 69.3670674292747 104.54811096350019 35.16858310352319 H 0.0 **** 0.06
61 C 104.47483779969482 189.2442805034308 105.99700233464063 C 0.0 **** -0.24
62 H 104.96605979946509 188.59433272120208 106.72123676683475 H 0.0 **** 0.06
63 H 103.59510265183073 189.69647801046852 106.45320747796916 H 0.0 **** 0.06
64 H 104.1744431542929 188.65779883481525 105.12902711586446 H 0.0 **** 0.06
65 H 105.16680124353977 190.02709189444582 105.68534127740975 H 0.0 **** 0.06
66 C 83.79180866611165 41.230364040469084 138.51361069910735 C 0.0 **** -0.24
67 H 83.80222901010521 41.021642597441286 137.44354739672931 H 0.0 **** 0.06
68 H 83.12249843886948 42.06820562103596 138.71304244947453 H 0.0 **** 0.06
69 H 84.79946815488074 41.482444561634 138.84431366532544 H 0.0 **** 0.06
70 H 83.44144434890327 40.3495800169126 139.05124070213685 H 0.0 **** 0.06
71 C 146.6186662720683 29.163587748159017 54.79004941432997 C 0.0 **** -0.24
72 H 147.67566848810168 29.13551334401285 54.52523093508955 H 0.0 **** 0.06
73 H 146.23940279219144 30.177270126767155 54.661076824866115 H 0.0 **** 0.06
74 H 146.49586188991367 28.85835615987193 55.8290602115962 H 0.0 **** 0.06
75 H 146.06419956880234 28.483546526140742 54.14353778367767 H 0.0 **** 0.06
76 C 142.47094851193182 112.35595643165504 47.84612680172626 C 0.0 **** -0.24
77 H 143.23437141502365 111.57717409109694 47.83716871118605 H 0.0 **** 0.06
78 H 141.50321378286347 111.91384581430577 48.08241131675308 H 0.0 **** 0.06
79 H 142.4247935933629 112.83012985438205 46.865219571837315 H 0.0 **** 0.06
80 H 142.7235610413877 113.10253291136615 48.59909503032972 H 0.0 **** 0.06
81 C 76.78839151348616 33.535399725854745 112.62199617856828 C 0.0 **** -0.24
82 H 76.89194251301893 34.620389831022635 112.66658747478004 H 0.0 **** 0.06
83 H 76.33720702513405 33.17515191138125 113.54619785506497 H 0.0 **** 0.06
84 H 77.77190183873496 33.083027590510255 112.49527376051162 H 0.0 **** 0.06
85 H 76.15348142126811 33.2665151747438 111.77770833777765 H 0.0 **** 0.06
86 C 190.30486038342784 99.00317219747936 14.536218930099352 C 0.0 **** -0.24
87 H 191.2811918383901 98.52786436472985 14.445383798385876 H 0.0 **** 0.06
88 H 190.0544203389902 99.49967781628382 13.598344389947385 H 0.0 **** 0.06
89 H 190.33314306933522 99.73787054328716 15.341281117601739 H 0.0 **** 0.06
90 H 189.55204090362486 98.24763829712668 14.76088320695402 H 0.0 **** 0.06
91 C 37.29847919951561 106.1457291142957 87.68023654487968 C 0.0 **** -0.24
92 H 37.873917173055105 105.30699729002268 87.28820880114085 H 0.0 **** 0.06
93 H 37.97923741644135 106.94006388724154 87.98936474007382 H 0.0 **** 0.06
94 H 36.712670330987805 105.81518816454803 88.53753072826987 H 0.0 **** 0.06
95 H 36.63025201469081 106.52172424080206 86.90630712307745 H 0.0 **** 0.06
96 C 80.31186963479027 11.113675618229571 71.16251531952275 C 0.0 **** -0.24
97 H 79.6278366765039 11.893857472989772 70.82623135953926 H 0.0 **** 0.06
98 H 80.24470150640181 10.258202089306735 70.49029722336547 H 0.0 **** 0.06
99 H 80.04244213572926 10.805363561030319 72.17279656011085 H 0.0 **** 0.06
100 H 81.33066461133629 11.499927945080614 71.15994679544104 H 0.0 **** 0.06
101 C 99.77700061775124 54.91082785189727 189.58851162311908 C 0.0 **** -0.24
102 H 99.80214638339936 54.76842827246951 190.66834388214176 H 0.0 **** 0.06
103 H 98.76272967457683 55.16096214067447 189.27824405725426 H 0.0 **** 0.06
104 H 100.09294660821348 53.9916148760301 189.0941804175228 H 0.0 **** 0.06
105 H 100.45198268517677 55.72127097976498 189.31410167575666 H 0.0 **** 0.06
106 C 127.90310435229628 7.758429711834999 100.01373849229572 C 0.0 **** -0.24
107 H 127.4603386600727 7.442825459926887 99.06839029884665 H 0.0 **** 0.06
108 H 128.22543978368617 8.796694589692123 99.93486773926597 H 0.0 **** 0.06
109 H 128.76069721649188 7.126888363115384 100.24122396945839 H 0.0 **** 0.06
110 H 127.16319971592785 7.66650328581936 100.80956093999902 H 0.0 **** 0.06
111 C 60.26727198330991 185.65510795834552 133.63365649472544 C 0.0 **** -0.24
112 H 60.65681326550492 186.28831060232693 134.43096427069804 H 0.0 **** 0.06
113 H 60.63045388857114 186.0188232730912 132.67241367551884 H 0.0 **** 0.06
114 H 59.17785810140481 185.68451198893297 133.64567620288395 H 0.0 **** 0.06
115 H 60.60586362540391 184.62996327451276 133.78559322927015 H 0.0 **** 0.06
116 C 198.5175310127443 48.37074280486138 100.26093750517396 C 0.0 **** -0.24
117 H 198.36431840247636 49.140380075706474 99.50454075315736 H 0.0 **** 0.06
118 H 197.6315330657192 47.736871722494456 100.31893591358858 H 0.0 **** 0.06
119 H 198.690470431111 48.842134695251346 101.22829334514154 H 0.0 **** 0.06
120 H 199.3814358035338 47.76344644912115 99.99259758933124 H 0.0 **** 0.06
121 C 106.47857192676963 61.989790863798646 192.60896237529016 C 0.0 **** -0.24
122 H 107.25649096464707 61.653872706574646 191.9232075737232 H 0.0 **** 0.06
123 H 106.82249826602128 62.87692764277631 193.14164118211494 H 0.0 **** 0.06
124 H 106.2596082221836 61.19786105427988 193.32578437072186 H 0.0 **** 0.06
125 H 105.57639996507879 62.230251912595236 192.04641378189814 H 0.0 **** 0.06
126 C 139.08859327981855 71.1964682561024 164.79817086234218 C 0.0 **** -0.24
127 H 138.98217950177298 71.31960416476767 165.8761816919712 H 0.0 **** 0.06
128 H 139.88659145488134 71.84515811687575 164.43587805845513 H 0.0 **** 0.06
129 H 138.15267252847585 71.46254773213117 164.30740642696904 H 0.0 **** 0.06
130 H 139.3347359391274 70.15786608143341 164.57433604812576 H 0.0 **** 0.06
131 C 97.46972539012461 86.2618737371576 9.971307826706692 C 0.0 **** -0.24
132 H 98.44389450510934 85.79729586626544 9.818034787456924 H 0.0 **** 0.06
133 H 96.75891442644556 85.50965101123035 10.313908811419196 H 0.0 **** 0.06
134 H 97.12044883434672 86.69153115977693 9.032276370841089 H 0.0 **** 0.06
135 H 97.55653950884255 87.0485909689431 10.720883702217009 H 0.0 **** 0.06
136 C 196.62206028306704 147.13245899629885 145.34397008908806 C 0.0 **** -0.24
137 H 196.3387171167918 147.09609134687446 144.29290886901154 H 0.0 **** 0.06
138 H 197.0030271832361 146.15781283176852 145.651818744889 H 0.0 **** 0.06
139 H 195.75159510905456 147.38962583049044 145.94688489759127 H 0.0 **** 0.06
140 H 197.39691244006252 147.88569320258625 145.4850304944475 H 0.0 **** 0.06
141 C 94.09348846049352 4.549762262248322 149.90473632102288 C 0.0 **** -0.24
142 H 94.50710424396755 3.811421615309399 150.59163788175232 H 0.0 **** 0.06
143 H 94.48570290690702 5.536440602358084 150.15294668014863 H 0.0 **** 0.06
144 H 93.00769832446065 4.557435952043306 149.98996857765255 H 0.0 **** 0.06
145 H 94.3758737958359 4.292889147283688 148.8832195900166 H 0.0 **** 0.06
146 C 14.231630110171665 143.23866122726847 189.32178627688583 C 0.0 **** -0.24
147 H 14.327470418379633 142.35270571507158 188.69446089236283 H 0.0 **** 0.06
148 H 15.028513873233067 143.9427618915355 189.07886809810563 H 0.0 **** 0.06
149 H 14.307478764298743 142.95173773773521 190.3702220439796 H 0.0 **** 0.06
150 H 13.264682473402928 143.70756141268254 189.14176531129306 H 0.0 **** 0.06
151 C 102.37076169896875 148.10976495646113 63.345674555680176 C 0.0 **** -0.24
152 H 102.70832006212129 148.34369627904144 62.33653128183482 H 0.0 **** 0.06
153 H 103.1252635002304 147.50450817990415 63.84993935451263 H 0.0 **** 0.06
154 H 101.43381868969493 147.55489704727879 63.29597460184095 H 0.0 **** 0.06
155 H 102.21661251964235 149.0348041307612 63.90110793233862 H 0.0 **** 0.06
156 C 79.86224676819108 12.88199697878946 93.44495412437107 C 0.0 **** -0.24
157 H 79.86278194110298 13.664990360552252 94.20260096726156 H 0.0 **** 0.06
158 H 80.69337728735411 13.041579800570965 92.7573967926445 H 0.0 **** 0.06
159 H 78.92263013966362 12.910265666098724 92.89343608331501 H 0.0 **** 0.06
160 H 79.97107186883522 11.910722550945245 93.92740802159892 H 0.0 **** 0.06
161 C 196.41737973517394 185.4252965579926 11.86104360371018 C 0.0 **** -0.24
162 H 197.027273310774 186.1378973166866 11.30719828851069 H 0.0 **** 0.06
163 H 196.87067289295052 185.23785326928873 12.83488035988482 H 0.0 **** 0.06
164 H 196.35464388420988 184.4909416447834 11.302606671971965 H 0.0 **** 0.06
165 H 195.41591514588526 185.83314581261885 11.999095583688131 H 0.0 **** 0.06
166 C 12.215516450927026 119.09529543018306 144.69941164983646 C 0.0 **** -0.24
167 H 13.270407107709957 119.13438706649171 144.42560103222908 H 0.0 **** 0.06
168 H 11.623117656914076 118.83852767397264 143.8206075229225 H 0.0 **** 0.06
169 H 11.902290724043326 120.06730012487782 145.07797229091906 H 0.0 **** 0.06
170 H 12.068547312491773 118.33996030688459 145.4706888907562 H 0.0 **** 0.06
171 C 62.85646405670094 187.0808705942226 100.15153055460777 C 0.0 **** -0.24
172 H 62.67330551994749 187.01392762932682 101.22390701388687 H 0.0 **** 0.06
173 H 62.68758229730747 186.10688701054107 99.69209762647156 H 0.0 **** 0.06
174 H 63.886623424435996 187.39114036466734 99.97723475995932 H 0.0 **** 0.06
175 H 62.177216787569094 187.81168220138844 99.71204422315407 H 0.0 **** 0.06
176 C 120.19742705272847 81.24208950763384 140.38390054518334 C 0.0 **** -0.24
177 H 121.21733985385657 80.96223194399604 140.64984100783772 H 0.0 **** 0.06
178 H 119.57559466022343 80.34783085165932 140.33907175682452 H 0.0 **** 0.06
179 H 120.19840643743441 81.73197603079407 139.41022405058743 H 0.0 **** 0.06
180 H 119.80070464396084 81.92447721983837 141.13442968170125 H 0.0 **** 0.06
181 C 22.11302481565616 189.1553552153478 63.18513967771247 C 0.0 **** -0.24
182 H 22.832497601250182 189.90280299290126 62.848572529493765 H 0.0 **** 0.06
183 H 21.913022635513116 189.29618799908658 64.24758023999104 H 0.0 **** 0.06
184 H 22.521878650553774 188.15859172528988 63.021006320677145 H 0.0 **** 0.06
185 H 21.186231294512936 189.26536193651958 62.62282130315083 H 0.0 **** 0.06
186 C 193.99046674437596 1.4673934778192574 193.6605621860997 C 0.0 **** -0.24
187 H 195.04524062963424 1.2560596199775773 193.48121681719363 H 0.0 **** 0.06
188 H 193.39879117959663 1.0945782952750847 192.8237135881991 H 0.0 **** 0.06
189 H 193.84661257235376 2.542984837769154 193.75614909009116 H 0.0 **** 0.06
190 H 193.67233829334702 0.9750136906108082 194.57920036512826 H 0.0 **** 0.06
191 C 28.14380724169159 162.89713912734587 192.3825546319574 C 0.0 **** -0.24
192 H 27.171897890690957 162.56888164786162 192.75034113616488 H 0.0 **** 0.06
193 H 28.191948425152574 163.98650756501186 192.40868030625987 H 0.0 **** 0.06
194 H 28.28140602384829 162.55057351385017 191.35838495360662 H 0.0 **** 0.06
195 H 28.93005480145139 162.4836453094215 193.01502308406748 H 0.0 **** 0.06
196 C 51.87945014365357 14.70268021823307 157.59802012566846 C 0.0 **** -0.24
197 H 52.73390628201486 14.155715624007776 157.9973422212873 H 0.0 **** 0.06
198 H 51.03703700459147 14.611236844591474 158.2846218471092 H 0.0 **** 0.06
199 H 51.604310424813036 14.286942383304478 156.6276841461924 H 0.0 **** 0.06
200 H 52.142937744674555 15.753265746915929 157.48134971589474 H 0.0 **** 0.06
201 C 179.73106943016663 189.55925149446432 82.40642413209471 C 0.0 **** -0.24
202 H 180.51616723380388 189.27418797950835 81.70620208857977 H 0.0 **** 0.06
203 H 179.68650667260985 190.64596441208894 82.47871437223151 H 0.0 **** 0.06
204 H 179.9491635940531 189.13809902598922 83.38781712959505 H 0.0 **** 0.06
205 H 178.77294306706065 189.1780393264954 82.05185134950793 H 0.0 **** 0.06
206 C 57.41091725749419 192.01402050001076 84.6757630625491 C 0.0 **** -0.24
207 H 57.65323076759168 192.48541425871662 83.72288805152766 H 0.0 **** 0.06
208 H 56.57812538164683 191.3250958720607 84.53873676709935 H 0.0 **** 0.06
209 H 57.13388101172188 192.7808567549825 85.39954187586659 H 0.0 **** 0.06
210 H 58.28046882142536 191.46738005383855 85.04056298129387 H 0.0 **** 0.06
211 C 139.2854009682347 29.056161514081126 135.93546703024597 C 0.0 **** -0.24
212 H 139.13878530964797 29.006634505701726 134.85644635885157 H 0.0 **** 0.06
213 H 140.35034957379546 29.13009914860592 136.15387572599187 H 0.0 **** 0.06
214 H 138.88024813127257 28.15659737386939 136.39865836710476 H 0.0 **** 0.06
215 H 138.77125863123788 29.931466130247713 136.33266115413238 H 0.0 **** 0.06
216 C 161.9621700027658 83.49650149038592 25.218347291975533 C 0.0 **** -0.24
217 H 161.8302153792062 83.4149626689387 24.139622548713845 H 0.0 **** 0.06
218 H 162.31972196740895 82.54584257544366 25.61411604401343 H 0.0 **** 0.06
219 H 161.0085851350484 83.74933306143001 25.68295228632087 H 0.0 **** 0.06
220 H 162.69069142329192 84.27825768254837 25.436751756844828 H 0.0 **** 0.06
221 C 151.8642984548158 128.951623937104 54.349425705975165 C 0.0 **** -0.24
222 H 152.78610969348694 129.06506422280174 54.91975895897119 H 0.0 **** 0.06
223 H 151.996386813741 129.38324356756686 53.35690575237693 H 0.0 **** 0.06
224 H 151.05292843121936 129.46617691670244 54.86464275507102 H 0.0 **** 0.06
225 H 151.62230516898939 127.89322401556913 54.25688640916903 H 0.0 **** 0.06
226 C 110.19673521512954 18.428349154501802 8.255046467366526 C 0.0 **** -0.24
227 H 110.14213252472251 17.733342652369288 9.092365504094772 H 0.0 **** 0.06
228 H 109.18951201038539 18.72761180761617 7.965129302041333 H 0.0 **** 0.06
229 H 110.68902989191821 17.942681659842435 7.412539662095696 H 0.0 **** 0.06
230 H 110.76730608516974 19.308817904860916 8.550326573888299 H 0.0 **** 0.06
231 C 5.547272467434269 66.30512840404566 24.259796302325157 C 0.0 **** -0.24
232 H 5.719499905505202 65.82775934119036 23.29505635120148 H 0.0 **** 0.06
233 H 5.248252757253859 67.34164990675939 24.102936250072474 H 0.0 **** 0.06
234 H 6.464456398216953 66.27675957861447 24.848044148410736 H 0.0 **** 0.06
235 H 4.757289659238509 65.77448765366735 24.79180217792765 H 0.0 **** 0.06
236 C 164.59947389991666 172.95725031855878 57.536845659784134 C 0.0 **** -0.24
237 H 163.519845935916 172.8262879608746 57.590817409559776 H 0.0 **** 0.06
238 H 165.05057813853134 172.07504531969514 57.081061699053535 H 0.0 **** 0.06
239 H 165.00038251556316 173.0928449349311 58.54150782786493 H 0.0 **** 0.06
240 H 164.82926808825133 173.83575498409368 56.93337662164453 H 0.0 **** 0.06
241 C 187.80906752959785 6.766931437209287 29.441175617242862 C 0.0 **** -0.24
242 H 187.29750317189564 7.0878968429111 30.348987169563074 H 0.0 **** 0.06
243 H 187.81744896869245 5.676853026581952 29.395234967648648 H 0.0 **** 0.06
244 H 188.83269313690062 7.138598619448693 29.450702390292264 H 0.0 **** 0.06
245 H 187.2856500095641 7.162496366834461 28.571047950300155 H 0.0 **** 0.06
246 C 175.92915281898843 86.35108968334413 199.04337872060302 C 0.0 **** -0.24
247 H 175.6252621330185 86.63006835190117 198.0344302397768 H 0.0 **** 0.06
248 H 175.343659143673 86.9165481075064 199.76839638320604 H 0.0 **** 0.06
249 H 176.98756215695823 86.57124721912623 199.17795950368233 H 0.0 **** 0.06
250 H 175.7584897417886 85.28420151766102 199.19170088977882 H 0.0 **** 0.06
251 C 157.02492446259885 105.820840918437 72.19260055343 C 0.0 **** -0.24
252 H 156.10537830464276 105.84604262677578 72.77641850171312 H 0.0 **** 0.06
253 H 156.805804142601 105.46580078581317 71.18572644672787 H 0.0 **** 0.06
254 H 157.73861186724866 105.1469658027022 72.66868178871323 H 0.0 **** 0.06
255 H 157.45053028982832 106.82266581931606 72.1410038852656 H 0.0 **** 0.06
256 C 138.5424804138058 143.33863434505383 176.62804859423574 C 0.0 **** -0.24
257 H 139.56781546766982 143.46234491416365 176.28169274859576 H 0.0 **** 0.06
258 H 137.9051952195737 143.06688503519686 175.78648185382195 H 0.0 **** 0.06
259 H 138.19099318789563 144.27373844897107 177.0637006568991 H 0.0 **** 0.06
260 H 138.50545737870692 142.55091159446684 177.38091568612424 H 0.0 **** 0.06
261 C 134.81662450842987 42.27724681943623 139.84885120314212 C 0.0 **** -0.24
262 H 134.9372381137331 41.81557120104911 140.82859538040466 H 0.0 **** 0.06
263 H 135.14366033847045 43.315615578150485 139.89380172319852 H 0.0 **** 0.06
264 H 133.76849331484078 42.23845660039116 139.5552937770103 H 0.0 **** 0.06
265 H 135.41906780534316 41.737919897956445 139.11736077591252 H 0.0 **** 0.06
266 C 68.07436165239139 177.6626424115383 45.765112278978194 C 0.0 **** -0.24
267 H 68.2574011147029 178.38097040280536 46.56455717734531 H 0.0 **** 0.06
268 H 67.00819108511014 177.44116723568976 45.71369480105888 H 0.0 **** 0.06
269 H 68.62738625848756 176.74609323803224 45.967979371594666 H 0.0 **** 0.06
270 H 68.40534405468439 178.08381798380236 44.815239922988994 H 0.0 **** 0.06
271 C 86.4849228305842 188.33720538255596 52.04327020320433 C 0.0 **** -0.24
272 H 86.52276484878018 187.6631420818217 51.1876900933986 H 0.0 **** 0.06
273 H 86.65269993007757 187.7702352928682 52.95905153519581 H 0.0 **** 0.06
274 H 85.50598259337539 188.8147237132673 52.08574300876987 H 0.0 **** 0.06
275 H 87.25691043094992 189.09935286094867 51.9394336110079 H 0.0 **** 0.06
276 C 124.50351123210328 189.68816708269102 97.1381300892902 C 0.0 **** -0.24
277 H 125.30720119822823 189.26975383057987 97.74310401178496 H 0.0 **** 0.06
278 H 124.73881171359807 190.72180811429948 96.88546118908494 H 0.0 **** 0.06
279 H 123.57043794776988 189.65433219627613 97.70045039490117 H 0.0 **** 0.06
280 H 124.39753890615171 189.1052102031886 96.22276248892683 H 0.0 **** 0.06
281 C 188.92241923138488 54.92587406551995 162.72974779077 C 0.0 **** -0.24
282 H 189.16065521982145 55.981419652042916 162.8621593415396 H 0.0 **** 0.06
283 H 188.3662654114777 54.793119305620465 161.8018680679016 H 0.0 **** 0.06
284 H 188.31794943598902 54.58180125036435 163.56969295092597 H 0.0 **** 0.06
285 H 189.84594787349505 54.34774710610397 162.6871007889886 H 0.0 **** 0.06
286 C 160.01432511656827 2.8282499208932563 79.03601562555545 C 0.0 **** -0.24
287 H 159.9414744555884 3.564191934487326 79.83620422649841 H 0.0 **** 0.06
288 H 160.85258216704398 3.080608188991306 78.38559642816045 H 0.0 **** 0.06
289 H 159.09030958987697 2.830330153681075 78.45632027513082 H 0.0 **** 0.06
290 H 160.17234596959764 1.8391706403448609 79.4645412872959 H 0.0 **** 0.06
291 C 7.729110337850344 190.65307910894796 31.30636509178231 C 0.0 **** -0.24
292 H 8.397566752663252 190.12162712294045 30.628892956962943 H 0.0 **** 0.06
293 H 6.7193776090919 190.25365293922968 31.206734505322345 H 0.0 **** 0.06
294 H 7.72721675125706 191.71414360947333 31.054521394236446 H 0.0 **** 0.06
295 H 8.072698467508964 190.52252689011416 32.33219840335562 H 0.0 **** 0.06
296 C 51.641438266480634 13.750786873300342 55.99264957620346 C 0.0 **** -0.24
297 H 52.61909335013553 13.540546274708333 55.559445119574235 H 0.0 **** 0.06
298 H 50.900429956033975 13.825378868310679 55.19700619384392 H 0.0 **** 0.06
299 H 51.682132194286794 14.692470345282828 56.540714298863634 H 0.0 **** 0.06
300 H 51.364269041740954 12.945726662065482 56.67328895348737 H 0.0 **** 0.06
301 C 189.95692362445666 46.555434149773305 119.61487741611094 C 0.0 **** -0.24
302 H 188.95332809938287 46.19815604161731 119.85036436999712 H 0.0 **** 0.06
303 H 190.69266253824333 45.919591542108236 120.10801342801324 H 0.0 **** 0.06
304 H 190.0683553999457 47.58139482353626 119.96596763444441 H 0.0 **** 0.06
305 H 190.11084017511655 46.520700094502274 118.53719430676762 H 0.0 **** 0.06
306 C 96.26381354164187 54.47075801989624 60.00747861336913 C 0.0 **** -0.24
307 H 96.92564427409633 54.056233241232974 60.7670317339776 H 0.0 **** 0.06
308 H 95.43925252051244 54.995821700030206 60.49133703415379 H 0.0 **** 0.06
309 H 95.8686148845027 53.664985894153574 59.389805592551284 H 0.0 **** 0.06
310 H 96.82057959530704 55.16856353338528 59.381563505797885 H 0.0 **** 0.06
311 C 166.50020025909632 180.8149573706266 42.094916039713866 C 0.0 **** -0.24
312 H 165.52378563039332 181.1217804117872 42.47093837183212 H 0.0 **** 0.06
313 H 167.2779399927693 181.17958959441776 42.76678132006458 H 0.0 **** 0.06
314 H 166.65362636528698 181.23249628184288 41.10012241452418 H 0.0 **** 0.06
315 H 166.54388779541966 179.7270046285422 42.04416258660018 H 0.0 **** 0.06
316 C 84.75022014272406 3.2568152967035644 99.50253708854922 C 0.0 **** -0.24
317 H 85.68704197195197 3.3786794508770015 98.95960463199978 H 0.0 **** 0.06
318 H 84.33276049998122 2.2727364610248344 99.29070469633311 H 0.0 **** 0.06
319 H 84.04539552677 4.026793896924829 99.18750389136969 H 0.0 **** 0.06
320 H 84.93534549892519 3.351246021891768 100.57259976221397 H 0.0 **** 0.06
321 C 116.17966011117653 191.23717155553157 35.04062778550032 C 0.0 **** -0.24
322 H 115.49927029640153 190.4779495299827 35.42606687807914 H 0.0 **** 0.06
323 H 116.9118675015965 191.4913346128141 35.808508120586666 H 0.0 **** 0.06
324 H 115.61426509279687 192.1275111176409 34.76818221799347 H 0.0 **** 0.06
325 H 116.69487919209249 190.85028971176598 34.16193136396002 H 0.0 **** 0.06
326 C 173.49305444938938 130.87338759524934 128.23943187253744 C 0.0 **** -0.24
327 H 174.28704657331716 131.1117051307651 127.5323025185055 H 0.0 **** 0.06
328 H 173.78142628468322 131.20914636117965 129.23638345353143 H 0.0 **** 0.06
329 H 173.3289156430603 129.79625334902948 128.25159464511 H 0.0 **** 0.06
330 H 172.57410996203507 131.3776623281576 127.93749190411066 H 0.0 **** 0.06
331 C 124.93659662752106 108.56120091866467 74.95845263973007 C 0.0 **** -0.24
332 H 124.32200445348684 108.64599833949714 75.85462479841226 H 0.0 **** 0.06
333 H 124.79231663566134 109.44262927465192 74.33422351172476 H 0.0 **** 0.06
334 H 124.64610808526214 107.66920102973376 74.40276450491456 H 0.0 **** 0.06
335 H 125.98655347163094 108.48506166297727 75.24443019546726 H 0.0 **** 0.06
336 C 45.08643105002194 16.03600370611551 2.7645921663400372 C 0.0 **** -0.24
337 H 44.31351622172775 15.590093399996647 3.3915494021341033 H 0.0 **** 0.06
338 H 44.98756454887875 15.661803523245482 1.7448596749553644 H 0.0 **** 0.06
339 H 46.068507061565 15.771856551777091 3.1556006698616557 H 0.0 **** 0.06
340 H 44.974007944927735 17.119681774087837 2.766725000468398 H 0.0 **** 0.06
341 C 161.33512638882667 58.404066213258616 190.74949357407365 C 0.0 **** -0.24
342 H 161.80974378164302 57.630486835881 190.14511126269207 H 0.0 **** 0.06
343 H 160.2569326522995 58.38099406857714 190.5877386709326 H 0.0 **** 0.06
344 H 161.72525054155142 59.37981247118536 190.46153689614619 H 0.0 **** 0.06
345 H 161.5483769353379 58.224175298777254 191.802436170578 H 0.0 **** 0.06
346 C 69.65108620357188 179.96607645942402 99.64379443368682 C 0.0 **** -0.24
347 H 70.20595321967971 179.4259101968654 98.87637362595237 H 0.0 **** 0.06
348 H 69.70059128872379 181.0360972911784 99.44160305834859 H 0.0 **** 0.06
349 H 70.0885886110442 179.75943042603066 100.62007550179234 H 0.0 **** 0.06
350 H 68.6101233733271 179.6407308701039 99.63455609268044 H 0.0 **** 0.06
351 C 167.3909114561502 177.51805356258964 169.73341839240862 C 0.0 **** -0.24
352 H 168.08962622437917 177.16673682890297 170.4925368963102 H 0.0 **** 0.06
353 H 166.37355981321394 177.46185877796708 170.12301883271687 H 0.0 **** 0.06
354 H 167.4751344190617 176.89195750858937 168.84499399371782 H 0.0 **** 0.06
355 H 167.6251410978868 178.549869672713 169.474784219583 H 0.0 **** 0.06
356 C 147.80020207760234 163.31352585451924 38.81376653202278 C 0.0 **** -0.24
357 H 148.47803174757252 163.7404604931783 38.0753402247158 H 0.0 **** 0.06
358 H 148.29100659667506 162.48121651087635 39.31772164112766 H 0.0 **** 0.06
359 H 146.89811719108718 162.9562531922436 38.31600473389193 H 0.0 **** 0.06
360 H 147.53312057381768 164.07532659186484 39.54600063637463 H 0.0 **** 0.06
361 C 119.26940930725314 132.5320461117551 67.81836790250729 C 0.0 **** -0.24
362 H 118.59677961879245 133.32070031197532 68.15407687690454 H 0.0 **** 0.06
363 H 120.19653062871242 132.97555991546005 67.45675039700912 H 0.0 **** 0.06
364 H 118.79722738398527 131.96977441175375 67.01313412516183 H 0.0 **** 0.06
365 H 119.4864842968289 131.86156045132498 68.65063897452409 H 0.0 **** 0.06
366 C 88.00194655560924 68.28501604573319 77.43095308653801 C 0.0 **** -0.24
367 H 88.33449802179513 67.24869586282503 77.4978388330663 H 0.0 **** 0.06
368 H 88.15491855831311 68.7776208903289 78.39057055739372 H 0.0 **** 0.06
369 H 86.9426819112708 68.31088299496037 77.17280967005905 H 0.0 **** 0.06
370 H 88.57537157872065 68.8010537313724 76.66097417154477 H 0.0 **** 0.06
371 C 183.32775822802122 108.46459661050761 45.81518914967543 C 0.0 **** -0.24
372 H 183.28936934299162 107.38876754067684 45.64444727757569 H 0.0 **** 0.06
373 H 184.2312970113191 108.71253730997523 46.37247432434617 H 0.0 **** 0.06
374 H 182.45096978983247 108.77304614053733 46.38536861607571 H 0.0 **** 0.06
375 H 183.33763672463328 108.98375335747517 44.85627028329759 H 0.0 **** 0.06
376 C 33.067243200806615 34.95434879459219 101.62269353990621 C 0.0 **** -0.24
377 H 33.97040035507109 35.50282974389725 101.35627005672563 H 0.0 **** 0.06
378 H 33.318985364555715 33.910950050352 101.81366378621712 H 0.0 **** 0.06
379 H 32.3532660339356 35.01150951862891 100.80130390598859 H 0.0 **** 0.06
380 H 32.627235963348085 35.39211389960336 102.51845802688561 H 0.0 **** 0.06
381 C 90.44377063128951 69.61196510591276 109.67028868980466 C 0.0 **** -0.24
382 H 90.50924115965537 70.49997687840619 109.04263005953021 H 0.0 **** 0.06
383 H 90.62834046816226 68.72455711483155 109.06399524791291 H 0.0 **** 0.06
384 H 89.44788272109076 69.55074643858495 110.11047757365131 H 0.0 **** 0.06
385 H 91.18849315722557 69.67173665877789 110.4638996782711 H 0.0 **** 0.06
386 C 98.93162303679367 32.50109825034184 7.718453387535078 C 0.0 **** -0.24
387 H 98.93781976875135 31.93703794310126 8.650813425061244 H 0.0 **** 0.06
388 H 98.45614503411434 31.908329023557258 6.938437396008965 H 0.0 **** 0.06
389 H 99.95720724525728 32.731370836562675 7.427621342431792 H 0.0 **** 0.06
390 H 98.37757702730102 33.42937591428614 7.859932336040686 H 0.0 **** 0.06
391 C 141.3228126684597 120.5805269194652 155.7792272194856 C 0.0 **** -0.24
392 H 141.0432907965269 119.61971315724361 155.34501050247673 H 0.0 **** 0.06
393 H 142.3035879004577 120.87575141186906 155.40491565252367 H 0.0 **** 0.06
394 H 141.35876568937513 120.49173726725317 156.86422050204442 H 0.0 **** 0.06
395 H 140.58542065026808 121.33304281758589 155.49895498176133 H 0.0 **** 0.06
396 C 189.71625335551033 102.1544434514067 122.95596956450413 C 0.0 **** -0.24
397 H 188.96829033779534 101.36230066499544 122.99833495193297 H 0.0 **** 0.06
398 H 190.1503367301955 102.19030466484932 121.95673321539834 H 0.0 **** 0.06
399 H 190.50001832697401 101.95346118974552 123.68571627610231 H 0.0 **** 0.06
400 H 189.24567607046703 103.11100168356168 123.18294103102824 H 0.0 **** 0.06
401 C 165.18390957243065 90.0947391907176 163.07403128500488 C 0.0 **** -0.24
402 H 165.82790861443482 90.93024773165354 162.79999043029423 H 0.0 **** 0.06
403 H 164.1411055411512 90.37877265532413 162.93299078152342 H 0.0 **** 0.06
404 H 165.35253891935974 89.83412237139692 164.11835770658135 H 0.0 **** 0.06
405 H 165.41581377829553 89.2356145706058 162.4430621497003 H 0.0 **** 0.06
406 C 90.60755988109281 132.8364541119241 189.3632055995871 C 0.0 **** -0.24
407 H 91.20334903300164 133.5319017997772 188.7725716449297 H 0.0 **** 0.06
408 H 89.55234722998586 133.09983963262175 189.2780583514973 H 0.0 **** 0.06
409 H 90.9127642353734 132.89394683165818 190.40744146628555 H 0.0 **** 0.06
410 H 90.76040398137559 131.82204831179442 188.99410094346547 H 0.0 **** 0.06
411 C 91.36561042258762 102.55790076486323 62.21273327069963 C 0.0 **** -0.24
412 H 91.76699532870663 101.77345153420913 61.57153967034333 H 0.0 **** 0.06
413 H 92.06313815897991 103.39480836440038 62.242201952392804 H 0.0 **** 0.06
414 H 91.22397985415006 102.16603588542159 63.22022192698074 H 0.0 **** 0.06
415 H 90.40794960517039 102.89563949984995 61.81669541089684 H 0.0 **** 0.06
416 C 8.76445665216778 112.38059182907188 18.781438763993805 C 0.0 **** -0.24
417 H 7.753095241657256 111.98797104262658 18.682607246083336 H 0.0 **** 0.06
418 H 8.727254207077536 113.3669991960532 19.24233044186451 H 0.0 **** 0.06
419 H 9.222041683049582 112.45716212059298 17.795079492037985 H 0.0 **** 0.06
420 H 9.35559812683588 111.70983407565839 19.404836288085278 H 0.0 **** 0.06
421 C 24.957990940084528 187.22871714339487 52.26255132721916 C 0.0 **** -0.24
422 H 25.996981290557585 187.4664914378032 52.49113855986748 H 0.0 **** 0.06
423 H 24.324318393481462 187.53808868907055 53.093684909312216 H 0.0 **** 0.06
424 H 24.85717684663973 186.15473903648382 52.10874882951093 H 0.0 **** 0.06
425 H 24.654983328073115 187.756631577333 51.357894244487994 H 0.0 **** 0.06
426 C 175.59536725336562 123.09365097991292 147.92696686773883 C 0.0 **** -0.24
427 H 175.75288422686032 123.59966967470666 148.87946892361268 H 0.0 **** 0.06
428 H 176.5329932671284 123.0669217456234 147.37068032751952 H 0.0 **** 0.06
429 H 174.84577650783226 123.63356199704822 147.34921132216743 H 0.0 **** 0.06
430 H 175.2517212312311 122.076318142584 148.10944413800914 H 0.0 **** 0.06
431 C 110.90113973605659 2.233666788197411 71.93453685853314 C 0.0 **** -0.24
432 H 110.4284237539334 2.18108884938448 70.95427014875682 H 0.0 **** 0.06
433 H 111.26420957251952 1.244483397509498 72.21545004768907 H 0.0 **** 0.06
434 H 110.17379226713868 2.576291739862967 72.6709005569162 H 0.0 **** 0.06
435 H 111.73809676625856 2.9303655384716762 71.89728843056957 H 0.0 **** 0.06
436 C 107.0088306594526 17.394324216372667 132.45271228920137 C 0.0 **** -0.24
437 H 106.0682321799627 17.499857613648444 131.9125004086388 H 0.0 **** 0.06
438 H 107.48122009382118 16.449988294020812 132.1800318979451 H 0.0 **** 0.06
439 H 106.81394601591265 17.406677826780708 133.52553663064532 H 0.0 **** 0.06
440 H 107.67053118788877 18.221025944566847 132.1941927620978 H 0.0 **** 0.06
441 C 43.19002279172946 156.7794410805489 77.37172613346893 C 0.0 **** -0.24
442 H 42.596597510638816 156.92729419700038 78.27338102872184 H 0.0 **** 0.06
443 H 43.689091131780685 157.71312626161964 77.10856553625364 H 0.0 **** 0.06
444 H 42.53801432482345 156.47246926810624 76.55397742704119 H 0.0 **** 0.06
445 H 43.93721078983188 156.0059472373521 77.54989756001461 H 0.0 **** 0.06
446 C 31.889344889849227 4.2576720513626185 110.23383418445428 C 0.0 **** -0.24
447 H 32.417450946460335 4.6964285286005065 111.0801180718845 H 0.0 **** 0.06
448 H 32.579739882976526 3.646861702083875 109.65148191170022 H 0.0 **** 0.06
449 H 31.487003628743366 5.052346111585507 109.6050533450732 H 0.0 **** 0.06
450 H 31.07257860043204 3.634478263492454 110.59923401047854 H 0.0 **** 0.06
451 C 191.33176456684532 83.59249816460559 43.984362044366634 C 0.0 **** -0.24
452 H 191.41114275850785 82.57748245901189 43.59403023676262 H 0.0 **** 0.06
453 H 191.5629705172298 84.30546174553714 43.19250508858377 H 0.0 **** 0.06
454 H 192.0338406884696 83.72131884673271 44.807267265436565 H 0.0 **** 0.06
455 H 190.31645696356634 83.76359842936364 44.342441445786676 H 0.0 **** 0.06
456 C 17.56222535090427 175.10822759576087 116.04230157197452 C 0.0 **** -0.24
457 H 18.28855137701288 174.99310686797816 116.8469781583041 H 0.0 **** 0.06
458 H 17.073402555563405 174.15169503690504 115.8549050918275 H 0.0 **** 0.06
459 H 18.071426249258707 175.4390652332253 115.13751177895384 H 0.0 **** 0.06
460 H 16.815665331222732 175.84823212040192 116.3309607598762 H 0.0 **** 0.06
461 C 155.13242112608182 36.738244672276835 18.496009703512527 C 0.0 **** -0.24
462 H 155.58241829524576 37.571217762457536 17.957305677702834 H 0.0 **** 0.06
463 H 155.64225134722818 36.60524975726412 19.45036403346711 H 0.0 **** 0.06
464 H 155.2279980280388 35.82829680276902 17.903257123230617 H 0.0 **** 0.06
465 H 154.07762186350936 36.947427184975055 18.67299237300915 H 0.0 **** 0.06
466 C 180.72523427630432 128.63394482072442 134.3862959150855 C 0.0 **** -0.24
467 H 181.38857365676418 127.80165732112243 134.14960818723125 H 0.0 **** 0.06
468 H 181.19788070554876 129.27537924670645 135.13014395957907 H 0.0 **** 0.06
469 H 179.78650198438447 128.2473575011772 134.7834742347958 H 0.0 **** 0.06
470 H 180.52724102462008 129.20905167979697 133.48187043355108 H 0.0 **** 0.06
471 C 32.528776216356704 17.05045552839192 120.0301451440871 C 0.0 **** -0.24
472 H 32.63944691255551 16.15155051556883 119.42350318924355 H 0.0 **** 0.06
473 H 32.82969821139548 17.920939544519513 119.44698460122649 H 0.0 **** 0.06
474 H 33.15768012289274 16.97053256852689 120.91590969759005 H 0.0 **** 0.06
475 H 31.48692623774184 17.158019413772195 120.33229629763937 H 0.0 **** 0.06
476 C 99.56628884016578 91.92648683343816 158.12379521561132 C 0.0 **** -0.24
477 H 99.65169191598162 91.77157426921372 159.19920773551598 H 0.0 **** 0.06
478 H 100.45549010424844 91.53506014024202 157.62850342076882 H 0.0 **** 0.06
479 H 99.47484650899312 92.9932766718544 157.91654548670894 H 0.0 **** 0.06
480 H 98.68389939452024 91.40664455786225 157.75074219632148 H 0.0 **** 0.06
481 C 56.991588617992704 115.6746115207593 184.76204922831263 C 0.0 **** -0.24
482 H 56.46097930660288 114.73236899058435 184.90129171269393 H 0.0 **** 0.06
483 H 58.0658978027525 115.4972903749919 184.82056152352513 H 0.0 **** 0.06
484 H 56.69523708138978 116.3769850993582 185.5408475308535 H 0.0 **** 0.06
485 H 56.7445622154502 116.08853547341494 183.78501771643636 H 0.0 **** 0.06
486 C 27.789792940732468 111.98043126082908 170.70658166390774 C 0.0 **** -0.24
487 H 27.387816113182907 112.62821332485791 169.92755425121857 H 0.0 **** 0.06
488 H 27.96888569064612 110.98732311220834 170.29608361608584 H 0.0 **** 0.06
489 H 27.075497109342166 111.91276912399084 171.52625962008528 H 0.0 **** 0.06
490 H 28.727201180731925 112.39670804992818 171.07606389377332 H 0.0 **** 0.06
491 C 20.174729810684255 150.0435525393702 186.21031490858087 C 0.0 **** -0.24
492 H 20.2168311047991 149.1712180232852 186.86213593063383 H 0.0 **** 0.06
493 H 20.900428941133953 150.78467579431342 186.5485749023448 H 0.0 **** 0.06
494 H 19.17329478380998 150.47400371967555 186.24321438139296 H 0.0 **** 0.06
495 H 20.409382441805803 149.74583914368966 185.18895721787362 H 0.0 **** 0.06
496 C 89.49326298619769 74.47918765924123 177.70199647159797 C 0.0 **** -0.24
497 H 88.66305272348555 75.18533055427179 177.68009168817514 H 0.0 **** 0.06
498 H 90.4354979247781 75.02673140685737 177.69220674487292 H 0.0 **** 0.06
499 H 89.44088844795778 73.8297522487076 176.82854514323384 H 0.0 **** 0.06
500 H 89.43281188352191 73.87507774601266 178.60772412243557 H 0.0 **** 0.06
501 C 62.99812207538393 186.99063512656505 77.06825051999938 C 0.0 **** -0.24
502 H 62.12304007893458 187.62180587028115 76.91542165780163 H 0.0 **** 0.06
503 H 63.30045952204043 187.0363071207313 78.11433121126537 H 0.0 **** 0.06
504 H 63.81481939046273 187.3427592636026 76.43747893983256 H 0.0 **** 0.06
505 H 62.753944892044686 185.96133500567475 76.80485451715884 H 0.0 **** 0.06
506 C 179.6429117678147 135.8861735000252 27.83169151941678 C 0.0 **** -0.24
507 H 179.03045376302435 136.398826044223 28.573461864241878 H 0.0 **** 0.06
508 H 180.4673016987739 136.53332971375983 27.53160858546009 H 0.0 **** 0.06
509 H 179.03350327124147 135.64648241453932 26.960624852016906 H 0.0 **** 0.06
510 H 180.04022762488967 134.96668558807954 28.261830772365442 H 0.0 **** 0.06
511 C 155.32106985686363 34.579796951768714 135.92357594480347 C 0.0 **** -0.24
512 H 155.82860675355244 34.66971841113468 134.96278297692666 H 0.0 **** 0.06
513 H 155.32261172340688 35.54651464265177 136.4280392548104 H 0.0 **** 0.06
514 H 155.84012913381875 33.84694781539042 136.54042622543065 H 0.0 **** 0.06
515 H 154.29318422796186 34.256006490083735 135.761663800729 H 0.0 **** 0.06
516 C 27.85190981824553 115.0491542159462 167.2998917786104 C 0.0 **** -0.24
517 H 28.306856196286645 115.45610713313351 168.2028329694087 H 0.0 **** 0.06
518 H 26.96168330502897 115.62803879487905 167.0503960476981 H 0.0 **** 0.06
519 H 27.573421277901616 114.00914526179002 167.47025665935703 H 0.0 **** 0.06
520 H 28.5638514659326 115.1056512847099 166.47658512299228 H 0.0 **** 0.06
521 C 191.02276419362545 160.28662055885417 22.908089652005287 C 0.0 **** -0.24
522 H 190.66952945317493 160.06904686114765 21.899994124625948 H 0.0 **** 0.06
523 H 192.0319133684631 159.89456341004046 23.031656643036968 H 0.0 **** 0.06
524 H 190.3586273341374 159.81654705135225 23.634537067761812 H 0.0 **** 0.06
525 H 191.02855857386123 161.36464462222725 23.06564028601025 H 0.0 **** 0.06
526 C 137.6351330893766 78.1569252269669 134.37407086734635 C 0.0 **** -0.24
527 H 136.94837992255268 77.70525630239175 133.6585039987474 H 0.0 **** 0.06
528 H 137.40270237521375 77.79730420430357 135.37651207184592 H 0.0 **** 0.06
529 H 137.52984075143104 79.24139801977128 134.3438720745823 H 0.0 **** 0.06
530 H 138.658894514438 77.88443135278428 134.1184025140576 H 0.0 **** 0.06
531 C 14.817137023754114 161.93036680256986 137.813517008855 C 0.0 **** -0.24
532 H 15.152940948766712 162.32717039502734 138.7712378978011 H 0.0 **** 0.06
533 H 15.49371166858974 161.13820316942272 137.49178695832222 H 0.0 **** 0.06
534 H 14.811055200659823 162.72823167766003 137.07122776307017 H 0.0 **** 0.06
535 H 13.810087998833694 161.52651244805722 137.92143188803618 H 0.0 **** 0.06
536 C 189.1704194503563 92.93750264941627 163.73014604195077 C 0.0 **** -0.24
537 H 188.77125136775783 93.24101294412412 162.76224623871772 H 0.0 **** 0.06
538 H 188.47268862627988 93.2263305199586 164.51717963373278 H 0.0 **** 0.06
539 H 190.1294605231866 93.42859834102262 163.8973343836572 H 0.0 **** 0.06
540 H 189.3078106706563 91.8570030373927 163.7434083715517 H 0.0 **** 0.06
541 C 10.293541206899818 0.8449570333180887 36.36744584766262 C 0.0 **** -0.24
542 H 11.043514946344203 0.7570493268509679 37.15311644905012 H 0.0 **** 0.06
543 H 9.574400956148565 0.03042631171021526 36.45799804926861 H 0.0 **** 0.06
544 H 10.781455345985421 0.7927752003958233 35.39387944386351 H 0.0 **** 0.06
545 H 9.777106235493704 1.7997649043438528 36.464004239782355 H 0.0 **** 0.06
546 C 187.2266771576616 25.093282498973764 183.9212951258922 C 0.0 **** -0.24
547 H 187.01317583640795 26.106160832099306 183.58118142348485 H 0.0 **** 0.06
548 H 186.50485252710016 24.807993204100228 184.6869999755149 H 0.0 **** 0.06
549 H 188.2335114651642 25.055052259769298 184.33752801190042 H 0.0 **** 0.06
550 H 187.1549818180208 24.404836789278818 183.0791087027514 H 0.0 **** 0.06
551 C 193.04391859240542 101.30053010460261 98.04108214970222 C 0.0 **** -0.24
552 H 192.35074917346878 100.65024260695435 97.50813656714814 H 0.0 **** 0.06
553 H 193.25694311156693 102.17995236452816 97.4330428965535 H 0.0 **** 0.06
554 H 193.97072359979683 100.76092063946885 98.2366142230905 H 0.0 **** 0.06
555 H 192.59754022936156 101.6113196642583 98.98562854188901 H 0.0 **** 0.06
556 C 152.83556882032286 125.68596535269404 182.15163977171466 C 0.0 **** -0.24
557 H 152.28991424251524 124.86691156821337 181.6841019205859 H 0.0 **** 0.06
558 H 153.72106841964853 125.9172837267912 181.56081160606104 H 0.0 **** 0.06
559 H 153.13523026524572 125.39355460563391 183.15867486756093 H 0.0 **** 0.06
560 H 152.19350555511414 126.56609491501234 182.20453999160614 H 0.0 **** 0.06
561 C 105.8219890446286 174.02950725148656 146.0990012434275 C 0.0 **** -0.24
562 H 105.45512758680184 174.32845901708674 147.08097486717668 H 0.0 **** 0.06
563 H 106.90093295722454 174.17861813251062 146.0529505211904 H 0.0 **** 0.06
564 H 105.33881059658609 174.63330203077092 145.33159710671774 H 0.0 **** 0.06
565 H 105.59285191218459 172.97676575185895 145.93088755599504 H 0.0 **** 0.06
566 C 26.28700311626889 56.64511444877901 183.97825471257335 C 0.0 **** -0.24
567 H 26.77352125990221 55.69151925824973 183.77703106345467 H 0.0 **** 0.06
568 H 25.2826000694957 56.6377255232008 183.55274954767162 H 0.0 **** 0.06
569 H 26.86653078417241 57.45023925848356 183.5273440894349 H 0.0 **** 0.06
570 H 26.224013166545518 56.801399978917686 185.05583524943563 H 0.0 **** 0.06
571 C 140.93163061770878 13.490893062643408 125.36927170833215 C 0.0 **** -0.24
572 H 140.31889129687193 14.391551070520507 125.34124769848836 H 0.0 **** 0.06
573 H 140.3053898910993 12.633738560809604 125.61712327560693 H 0.0 **** 0.06
574 H 141.71053375458678 13.603572499189909 126.12325508044475 H 0.0 **** 0.06
575 H 141.39179555133938 13.334157473470384 124.39329584419869 H 0.0 **** 0.06
576 C 76.11676474484942 191.12742738791857 87.310781971631 C 0.0 **** -0.24
577 H 76.03505705494655 190.08495958117572 87.00538980260981 H 0.0 **** 0.06
578 H 77.09277738779157 191.2980751448003 87.76661568754213 H 0.0 **** 0.06
579 H 75.33297362801082 191.35681689866956 88.03356454412699 H 0.0 **** 0.06
580 H 76.0054588910634 191.77077961659097 86.4382812053596 H 0.0 **** 0.06
581 C 46.98693164156896 26.246833106462518 129.51895278220854 C 0.0 **** -0.24
582 H 47.8992426271047 25.6524019058607 129.46141223537404 H 0.0 **** 0.06
583 H 46.882037745743645 26.838761316156692 128.60992586342158 H 0.0 **** 0.06
584 H 47.04010290311611 26.91031628110575 130.3818256379071 H 0.0 **** 0.06
585 H 46.12831826928391 25.5844510074529 129.62301375441552 H 0.0 **** 0.06
586 C 27.632852845698537 55.420029345758564 124.11462869047409 C 0.0 **** -0.24
587 H 27.57972110970681 56.42762396405993 124.5279769745608 H 0.0 **** 0.06
588 H 27.10369934827189 54.72963981332123 124.76983972923534 H 0.0 **** 0.06
589 H 28.676896318309005 55.116732419103926 124.03178002891482 H 0.0 **** 0.06
590 H 27.172820225098533 55.409659014673935 123.1265714430298 H 0.0 **** 0.06
591 C 50.74204549736322 191.68645306163893 55.90081631858969 C 0.0 **** -0.24
592 H 51.40039812204165 190.9702219026738 56.39361592899192 H 0.0 **** 0.06
593 H 51.29845426812102 192.22214963022878 55.132454995089745 H 0.0 **** 0.06
594 H 50.360910145337186 192.39495850775162 56.63582009071176 H 0.0 **** 0.06
595 H 49.90743638417629 191.15564812451098 55.441332414180394 H 0.0 **** 0.06
596 C 101.53775498862603 17.376703938796027 95.80420241127095 C 0.0 **** -0.24
597 H 101.41921257999115 18.413242039059227 95.48805188834345 H 0.0 **** 0.06
598 H 102.26088731195898 17.326476478720622 96.61878914503998 H 0.0 **** 0.06
599 H 101.89396164975807 16.779702852938968 94.96436063346721 H 0.0 **** 0.06
600 H 100.57812831754015 16.988874583779506 96.14440779451235 H 0.0 **** 0.06
601 C 128.71974291430513 100.67503304784901 80.71273913000243 C 0.0 **** -0.24
602 H 128.51620828437774 100.07399735159478 79.8259886307535 H 0.0 **** 0.06
603 H 129.3899700146917 100.12826443122603 81.37589476220194 H 0.0 **** 0.06
604 H 127.78439310774831 100.88288563772252 81.23225594391965 H 0.0 **** 0.06
605 H 129.18719304377782 101.61349471667495 80.41566718365834 H 0.0 **** 0.06
606 C 195.9805258206248 104.78105086380938 171.4659825234064 C 0.0 **** -0.24
607 H 195.03109211045063 104.25480118127004 171.5686694327881 H 0.0 **** 0.06
608 H 196.15894098453674 105.38498846888211 172.35485712077946 H 0.0 **** 0.06
609 H 195.94342800832703 105.42661138306417 170.58864162887272 H 0.0 **** 0.06
610 H 196.78646522007537 104.0560845905328 171.34994253167693 H 0.0 **** 0.06
611 C 109.32894765877853 66.57119653911849 115.26435196291365 C 0.0 **** -0.24
612 H 109.61365056579433 67.15089718795673 116.14168831076245 H 0.0 **** 0.06
613 H 108.96885434374451 65.59122487306945 115.57684358046879 H 0.0 **** 0.06
614 H 110.19580360233488 66.44861088945646 114.6131889531031 H 0.0 **** 0.06
615 H 108.54102766156501 67.09396968310853 114.72358402149013 H 0.0 **** 0.06
616 C 195.72689602626286 77.24158635477285 43.83447295853091 C 0.0 **** -0.24
617 H 196.54295842304126 77.5631524216545 44.48060226785475 H 0.0 **** 0.06
618 H 195.0890605907033 78.09518328124533 43.60330431044872 H 0.0 **** 0.06
619 H 195.1397122094204 76.47694019989004 44.34452309155574 H 0.0 **** 0.06
620 H 196.1349109823396 76.83013225741803 42.91126063003077 H 0.0 **** 0.06
621 C 74.8647418093846 184.87807110789845 113.42829400957808 C 0.0 **** -0.24
622 H 74.02629565023774 185.3321059669622 113.95477195664444 H 0.0 **** 0.06
623 H 75.72230874887714 184.81305486419612 114.0988725218217 H 0.0 **** 0.06
624 H 75.12459126429886 185.48993993041495 112.56436317263157 H 0.0 **** 0.06
625 H 74.58724677906086 183.8779607228422 113.09469931988565 H 0.0 **** 0.06
626 C 18.148175358572985 24.654367064149312 27.674505103609476 C 0.0 **** -0.24
627 H 17.641349582605827 24.252372104105063 28.551422062775657 H 0.0 **** 0.06
628 H 18.868875511211996 25.41077463047634 27.98694163984095 H 0.0 **** 0.06
629 H 17.414458013495405 25.106251366413943 27.006212398272453 H 0.0 **** 0.06
630 H 18.666916930080347 23.850116344650814 27.15421901668458 H 0.0 **** 0.06
631 C 171.13879980105224 41.28969350530839 175.81627953557393 C 0.0 **** -0.24
632 H 171.3265958704393 42.33479228135823 175.56931015407693 H 0.0 **** 0.06
633 H 171.76157472949146 40.65171233457792 175.18718482787926 H 0.0 **** 0.06
634 H 170.0883986162912 41.05800115078431 175.64067862156884 H 0.0 **** 0.06
635 H 171.3799871767551 41.11508745923365 176.86413831889294 H 0.0 **** 0.06
636 C 118.81411919606637 149.81801219324325 67.24594104298626 C 0.0 **** -0.24
637 H 119.66858951288398 149.6057345026329 66.60409345867146 H 0.0 **** 0.06
638 H 119.04615652440268 149.52149775235318 68.26894864381677 H 0.0 **** 0.06
639 H 117.946992944074 149.26039696782766 66.89279518928109 H 0.0 **** 0.06
640 H 118.59567655383069 150.886384838281 67.21742042447087 H 0.0 **** 0.06
641 C 118.78086157948701 148.91762989247312 187.2992569937157 C 0.0 **** -0.24
642 H 117.76640470296502 149.297221293433 187.4247452994058 H 0.0 **** 0.06
643 H 119.47514048989808 149.75445412081254 187.2264787223288 H 0.0 **** 0.06
644 H 118.83439610402547 148.31907177074817 186.3900920451813 H 0.0 **** 0.06
645 H 119.04520789181481 148.2983287983636 188.15699231791973 H 0.0 **** 0.06
646 C 196.89918407233324 180.16599730105924 78.64292608629731 C 0.0 **** -0.24
647 H 196.69063191034803 179.41878178482386 77.87707319190929 H 0.0 **** 0.06
648 H 196.915356389652 181.15704013543052 78.18955732239144 H 0.0 **** 0.06
649 H 197.86719927189307 179.95857468241363 79.09903365391142 H 0.0 **** 0.06
650 H 196.12290190875575 180.12883942989862 79.40777639626842 H 0.0 **** 0.06
651 C 191.38895458029452 107.98823025514713 78.21870969549444 C 0.0 **** -0.24
652 H 191.46902781979387 107.91232964449989 77.13427709853512 H 0.0 **** 0.06
653 H 190.92952425014522 107.08134747226975 78.6122310774029 H 0.0 **** 0.06
654 H 190.7753154383859 108.84968772750594 78.4789723942144 H 0.0 **** 0.06
655 H 192.38431726522447 108.10719613425218 78.64767583039426 H 0.0 **** 0.06
656 C 4.9024298737205925 41.12264436910321 183.82505118427196 C 0.0 **** -0.24
657 H 5.2283301434373755 42.06420217310355 183.3824795976644 H 0.0 **** 0.06
658 H 5.702569753654814 40.38596587800515 183.7429921253994 H 0.0 **** 0.06
659 H 4.0194661183205085 40.76037443826708 183.29861962758875 H 0.0 **** 0.06
660 H 4.659353479469644 41.28003498703717 184.87611338643538 H 0.0 **** 0.06
661 C 22.909593860240392 197.75074461173827 49.44189194505452 C 0.0 **** -0.24
662 H 22.096203336952982 197.3395597402602 48.84351283938628 H 0.0 **** 0.06
663 H 23.710632155368202 198.08867229396063 48.78250035514969 H 0.0 **** 0.06
664 H 23.291430500528108 196.98149343915978 50.113039539429934 H 0.0 **** 0.06
665 H 22.54037844634837 198.59309212835967 50.02608566393002 H 0.0 **** 0.06
666 C 100.8764422510834 141.22748351636997 185.7027571720112 C 0.0 **** -0.24
667 H 101.61342351620792 140.42387709533276 185.70294435371733 H 0.0 **** 0.06
668 H 100.15457397214954 141.05835446637488 186.50223778540874 H 0.0 **** 0.06
669 H 100.35923176383696 141.24493801351372 184.7434676778711 H 0.0 **** 0.06
670 H 101.37897032931792 142.181452099695 185.86268264322513 H 0.0 **** 0.06
671 C 176.9624399065229 88.33475245086515 16.274884663195905 C 0.0 **** -0.24
672 H 177.12024063382364 89.387859572481 16.042419611059017 H 0.0 **** 0.06
673 H 177.44000527355377 88.09667698085721 17.22494469137399 H 0.0 **** 0.06
674 H 177.39594348159233 87.71939638363344 15.486086046208015 H 0.0 **** 0.06
675 H 175.89331752308692 88.13450391660058 16.34530863391825 H 0.0 **** 0.06
676 C 103.00106126282355 3.5299873463252354 188.73954373339154 C 0.0 **** -0.24
677 H 104.02427720567175 3.2765434924032704 189.01732068567316 H 0.0 **** 0.06
678 H 102.82743031647146 3.2542800604933504 187.69972766613535 H 0.0 **** 0.06
679 H 102.84584358630707 4.602280034286444 188.8625907445283 H 0.0 **** 0.06
680 H 102.30635513423971 2.9871545987420447 189.38072443472274 H 0.0 **** 0.06
681 C 47.00718543488236 40.48234866549177 177.71294584650863 C 0.0 **** -0.24
682 H 46.81876666752913 39.434252003251714 177.4796489450009 H 0.0 **** 0.06
683 H 46.303141471133245 41.108453210395155 177.16375106851143 H 0.0 **** 0.06
684 H 48.02584227060794 40.74133181211769 177.42374406755027 H 0.0 **** 0.06
685 H 46.880356676496376 40.64529374912442 178.78337709410368 H 0.0 **** 0.06
686 C 119.21153682276667 99.41808955053295 82.45179028991748 C 0.0 **** -0.24
687 H 120.14255852388891 99.37519989943485 81.88616695029168 H 0.0 **** 0.06
688 H 118.80966188149534 98.41077628017749 82.56645595982684 H 0.0 **** 0.06
689 H 118.49031565208821 100.03802349422682 81.91964688717542 H 0.0 **** 0.06
690 H 119.40396390310656 99.84626734750469 83.43560037239769 H 0.0 **** 0.06
691 C 147.62057792050734 33.06959651739152 138.25416921084437 C 0.0 **** -0.24
692 H 148.31714874096033 33.61326873753603 137.61568874995385 H 0.0 **** 0.06
693 H 148.0252148122127 33.00865441190581 139.26408936236732 H 0.0 **** 0.06
694 H 147.47424519490426 32.06379859343383 137.85888706148108 H 0.0 **** 0.06
695 H 146.66418346129694 33.59310746085873 138.27643213070502 H 0.0 **** 0.06
696 C 189.88096299101394 183.01974367975401 25.06318798901941 C 0.0 **** -0.24
697 H 190.46671138072833 182.1333190822038 24.820622677858537 H 0.0 **** 0.06
698 H 189.89852309929617 183.7078463483822 24.217544411766994 H 0.0 **** 0.06
699 H 190.3071742256367 183.50771493004066 25.939069088015913 H 0.0 **** 0.06
700 H 188.85198470495712 182.72824021282133 25.27301194217972 H 0.0 **** 0.06
701 C 122.29812676554297 126.27881164027588 100.54573884735885 C 0.0 **** -0.24
702 H 122.52054024336559 127.33665884116022 100.41121303404094 H 0.0 **** 0.06
703 H 121.36658830546867 126.17045489881787 101.10189225394197 H 0.0 **** 0.06
704 H 123.10840148279354 125.8048996366926 101.09972980081699 H 0.0 **** 0.06
705 H 122.19709100736111 125.80192928709766 99.57065593507895 H 0.0 **** 0.06
706 C 28.87908975965945 4.179004457515084 174.09232409867658 C 0.0 **** -0.24
707 H 29.890445249855702 4.570332368197484 174.2078673702075 H 0.0 **** 0.06
708 H 28.24338904933599 4.578585075594809 174.8823814485194 H 0.0 **** 0.06
709 H 28.902398570012522 3.0907327664599578 174.15913079696213 H 0.0 **** 0.06
710 H 28.48332662935779 4.475851219539408 173.12149496406803 H 0.0 **** 0.06
711 C 71.34069196494636 178.9501994640454 20.28811925071308 C 0.0 **** -0.24
712 H 71.07768294127129 178.19948746630837 19.54262851245788 H 0.0 **** 0.06
713 H 71.39568917557875 178.4814224241449 21.271107092106632 H 0.0 **** 0.06
714 H 70.57990436403554 179.73125054503322 20.30012493917819 H 0.0 **** 0.06
715 H 72.30669449624958 179.3873937819143 20.03941083067869 H 0.0 **** 0.06
716 C 199.02578850477948 104.10357394147772 130.31456703739877 C 0.0 **** -0.24
717 H 198.4343914919403 103.69611483826492 129.49485652384828 H 0.0 **** 0.06
718 H 199.05704518618398 105.19105880930991 130.23465205023274 H 0.0 **** 0.06
719 H 200.03934444426824 103.70693870785325 130.2636896172051 H 0.0 **** 0.06
720 H 198.57211832152956 103.8221654772029 131.2649881692347 H 0.0 **** 0.06
721 C 98.78214749439041 185.05507980796548 142.00462467420414 C 0.0 **** -0.24
722 H 99.5072981023196 184.25870587974035 142.17389917821268 H 0.0 **** 0.06
723 H 97.96724111258186 184.9632173367457 142.72347137722988 H 0.0 **** 0.06
724 H 98.38513126650042 184.97520694900743 140.99165075198496 H 0.0 **** 0.06
725 H 99.2697413409154 186.02219206028542 142.12765238030613 H 0.0 **** 0.06
726 C 29.775729474312527 134.853290113596 162.56758288359856 C 0.0 **** -0.24
727 H 29.51827171420541 135.46791505037652 163.43049213911456 H 0.0 **** 0.06
728 H 30.71786746850421 135.20140786313402 162.14254553913673 H 0.0 **** 0.06
729 H 28.98790798246216 134.9311175934048 161.818098480728 H 0.0 **** 0.06
730 H 29.879715255907286 133.81420566360254 162.87947731853373 H 0.0 **** 0.06
731 C 34.80037688844368 57.086564343978964 115.3561144872346 C 0.0 **** -0.24
732 H 34.91423096021046 57.58484742578487 114.39307818692251 H 0.0 **** 0.06
733 H 33.77258799161882 56.74051723752038 115.46621021171674 H 0.0 **** 0.06
734 H 35.036110574725896 57.78744460189506 116.15721259950433 H 0.0 **** 0.06
735 H 35.47869016442618 56.23510742992606 115.40646222905227 H 0.0 **** 0.06
736 C 103.83504741240404 115.46334295195649 196.6420233658169 C 0.0 **** -0.24
737 H 103.53865094019216 115.72078919071302 197.6589679327149 H 0.0 **** 0.06
738 H 103.04325833725466 114.8790398355556 196.17069050817798 H 0.0 **** 0.06
739 H 104.7534735311458 114.87723918860476 196.66862256360133 H 0.0 **** 0.06
740 H 104.00193036290153 116.37604219372548 196.07062346962874 H 0.0 **** 0.06
741 C 179.54297440512002 98.05276159531616 114.86588948519514 C 0.0 **** -0.24
742 H 180.3076778723145 98.76389832870439 114.55215416103204 H 0.0 **** 0.06
743 H 178.5710670124432 98.5462080165695 114.87639348161045 H 0.0 **** 0.06
744 H 179.77649854918795 97.68620445020815 115.86613397711128 H 0.0 **** 0.06
745 H 179.51883133804446 97.2149649143048 114.16933187323625 H 0.0 **** 0.06
746 C 166.01240755276802 123.28939861055278 111.02100907767215 C 0.0 **** -0.24
747 H 167.0173154154417 123.66511660585599 110.8254077408065 H 0.0 **** 0.06
748 H 165.27885663749106 124.00187835286812 110.64324544668085 H 0.0 **** 0.06
749 H 165.8754335075704 123.15967830551614 112.09423292223107 H 0.0 **** 0.06
750 H 165.87954522436524 122.3312512019358 110.51878818648117 H 0.0 **** 0.06
751 C 176.37897415454677 42.588227166632834 52.93386541993087 C 0.0 **** -0.24
752 H 177.43118389307028 42.346418166285645 53.08604547907302 H 0.0 **** 0.06
753 H 175.94507996151555 41.88915054016573 52.21812845234855 H 0.0 **** 0.06
754 H 176.29141520761783 43.604468087606506 52.54907130377998 H 0.0 **** 0.06
755 H 175.84804906166175 42.512643284242074 53.88392507611891 H 0.0 **** 0.06
756 C 140.624247412479 139.99842771911528 168.4283953996186 C 0.0 **** -0.24
757 H 140.457601731399 141.04794926200287 168.6687709547591 H 0.0 **** 0.06
758 H 140.68097359979197 139.41961306218096 169.35089387641204 H 0.0 **** 0.06
759 H 141.55912557772706 139.89624997634152 167.87724368766007 H 0.0 **** 0.06
760 H 139.79966601706082 139.63078421213203 167.81842619052574 H 0.0 **** 0.06
761 C 108.83819815081088 27.04700224660013 187.02582425383883 C 0.0 **** -0.24
762 H 109.19988282955575 26.023909337725968 187.13219526241448 H 0.0 **** 0.06
763 H 108.19753800185183 27.114836619016955 186.1464990823617 H 0.0 **** 0.06
764 H 109.68621105994129 27.721453058315774 186.91122551860556 H 0.0 **** 0.06
765 H 108.26946954276221 27.324519693426083 187.9130962026571 H 0.0 **** 0.06
766 C 179.89557226913237 80.57224073982349 101.00225282095036 C 0.0 **** -0.24
767 H 180.00607699771282 80.93185971062249 102.02501113632565 H 0.0 **** 0.06
768 H 179.25761139854504 81.25735402363966 100.44226850120526 H 0.0 **** 0.06
769 H 179.44351247393325 79.58098192234579 101.0118735179926 H 0.0 **** 0.06
770 H 180.8761649418497 80.5195045555433 100.52804230699093 H 0.0 **** 0.06
771 C 69.44606271004687 68.75796833349699 105.81785811840695 C 0.0 **** -0.24
772 H 68.56535177474123 68.60511323507792 105.19292749741595 H 0.0 **** 0.06
773 H 69.19353668595147 69.42323298670246 106.64390003225074 H 0.0 **** 0.06
774 H 70.24115044480567 69.2038415750412 105.22106400998774 H 0.0 **** 0.06
775 H 69.78263499905512 67.79895078988392 106.2121361106675 H 0.0 **** 0.06
776 C 16.0071571832716 65.87783923222999 43.18053316227525 C 0.0 **** -0.24
777 H 16.21129035832439 66.92161134554858 42.945265081980494 H 0.0 **** 0.06
778 H 16.815070981014344 65.25424154871959 42.798512358273115 H 0.0 **** 0.06
779 H 15.066577911787363 65.57912389929162 42.716646874424384 H 0.0 **** 0.06
780 H 15.933318527420454 65.75618530776637 44.2611245994845 H 0.0 **** 0.06
781 C 118.28701598694494 40.17510498846015 116.24345345110575 C 0.0 **** -0.24
782 H 118.3009221379377 41.08373787606632 116.84492545001964 H 0.0 **** 0.06
783 H 118.02127088620708 40.42298786257295 115.21562403282567 H 0.0 **** 0.06
784 H 117.55199973694914 39.481085398717255 116.65162328407467 H 0.0 **** 0.06
785 H 119.2738251929793 39.712281842816 116.26258496250838 H 0.0 **** 0.06
786 C 69.57870131659978 126.68278546204002 80.6874993931776 C 0.0 **** -0.24
787 H 69.77220810655696 127.63312299333626 80.19033606615366 H 0.0 **** 0.06
788 H 68.90006853767889 126.08552712397466 80.07756600603437 H 0.0 **** 0.06
789 H 69.12600112574917 126.86777405692169 81.66093321716164 H 0.0 **** 0.06
790 H 70.51800861671903 126.14453810600656 80.8194967065574 H 0.0 **** 0.06
791 C 1.186401614357493 3.0903832570180967 81.83293676248041 C 0.0 **** -0.24
792 H 1.2380631469075922 2.001988642631254 81.81897545792873 H 0.0 **** 0.06
793 H 1.7337681976795523 3.4692975958356413 82.69553771980316 H 0.0 **** 0.06
794 H 0.144465177536091 3.4044168577365284 81.89654529759227 H 0.0 **** 0.06
795 H 1.6291878193827642 3.485946455052634 80.9184588620302 H 0.0 **** 0.06
796 C 158.30435268450117 178.34391843278826 164.39701360585124 C 0.0 **** -0.24
797 H 157.27823082796544 178.63094190857197 164.16544685488367 H 0.0 **** 0.06
798 H 158.46434953177794 177.30559225488645 164.10513784978727 H 0.0 **** 0.06
799 H 158.4774387763557 178.4512740088012 165.46786544888087 H 0.0 **** 0.06
800 H 158.9946251595191 178.98657568162542 163.85090167146421 H 0.0 **** 0.06
801 C 78.7917870159198 6.617936640035282 187.00429949779303 C 0.0 **** -0.24
802 H 78.46252472832046 6.2140492849952125 187.96187980320275 H 0.0 **** 0.06
803 H 79.87299196696245 6.5128961796332305 186.91736258443376 H 0.0 **** 0.06
804 H 78.52214444295072 7.672568837902304 186.94295207937157 H 0.0 **** 0.06
805 H 78.30716149994555 6.072650750727803 186.1943574673128 H 0.0 **** 0.06
806 C 51.2341443285228 50.62407571501912 159.676099191583 C 0.0 **** -0.24
807 H 51.46428199083766 50.43594964715662 160.72456326399484 H 0.0 **** 0.06
808 H 51.8715325187012 51.425512888381974 159.3023540408218 H 0.0 **** 0.06
809 H 50.18861673975994 50.9175822508149 159.5805813225604 H 0.0 **** 0.06
810 H 51.4115164157069 49.717966964885605 159.09721600207823 H 0.0 **** 0.06
811 C 188.37152840626732 188.02480735043923 183.3451556197885 C 0.0 **** -0.24
812 H 188.93438413527397 188.40509003743813 182.49287034926698 H 0.0 **** 0.06
813 H 187.32867506639218 188.32929713147496 183.256761239823 H 0.0 **** 0.06
814 H 188.79045852567825 188.42816422227315 184.26739663213306 H 0.0 **** 0.06
815 H 188.43257736039195 186.9359590354248 183.36428906202104 H 0.0 **** 0.06
816 C 24.500028211713825 159.70748296018937 169.2644954611037 C 0.0 **** -0.24
817 H 24.923197743445513 159.0976587969542 168.46696884963453 H 0.0 **** 0.06
818 H 25.29934795772388 160.2521588068634 169.7689386095913 H 0.0 **** 0.06
819 H 23.989609292897455 159.06416495320133 169.98150812485153 H 0.0 **** 0.06
820 H 23.788517112344223 160.41660188266547 168.84168937503455 H 0.0 **** 0.06
821 C 52.65661711785789 4.008430157162707 193.38366515243362 C 0.0 **** -0.24
822 H 53.16414360007752 3.8670448327050053 192.4294168914893 H 0.0 **** 0.06
823 H 52.5771923591239 5.073651286527365 193.59808602675707 H 0.0 **** 0.06
824 H 53.22696406275489 3.519736075452329 194.17367853348 H 0.0 **** 0.06
825 H 51.65908918152526 3.5723448061604586 193.33296743318886 H 0.0 **** 0.06
826 C 33.56696679287212 66.01983493619838 147.69505132938247 C 0.0 **** -0.24
827 H 34.12058869127526 66.78157534204854 148.2443964296542 H 0.0 **** 0.06
828 H 33.3444888604744 65.18462658889541 148.35911854548266 H 0.0 **** 0.06
829 H 34.16854362571604 65.6678284032277 146.85688046239295 H 0.0 **** 0.06
830 H 32.6363357104039 66.4464092654452 147.3221387515286 H 0.0 **** 0.06
831 C 74.05351144233566 38.95773088609107 111.60607316956441 C 0.0 **** -0.24
832 H 73.26742341445437 38.33047827773626 112.02795761749076 H 0.0 **** 0.06
833 H 74.99896076433812 38.73786549367969 112.10108473780667 H 0.0 **** 0.06
834 H 73.79954702626544 40.007389121250924 111.7569816439231 H 0.0 **** 0.06
835 H 74.14535262279232 38.755303695381414 110.53943448128001 H 0.0 **** 0.06
836 C 31.074050601519048 33.676419754677994 168.02704116334345 C 0.0 **** -0.24
837 H 30.873271496865073 32.63322782128478 168.27221260511556 H 0.0 **** 0.06
838 H 30.56214141769891 34.321592165219954 168.74139208634824 H 0.0 **** 0.06
839 H 30.711748531446347 33.88868445510218 167.0214574638566 H 0.0 **** 0.06
840 H 32.14633956449666 33.861013389873136 168.0742662516183 H 0.0 **** 0.06
841 C 24.774470412072958 146.09233074718884 2.169319973880903 C 0.0 **** -0.24
842 H 24.5354553250574 145.0720727154894 2.4672125568728234 H 0.0 **** 0.06
843 H 24.693624532798253 146.75194463347066 3.034334531863067 H 0.0 **** 0.06
844 H 24.07790039235192 146.41870501680086 1.3969128718333081 H 0.0 **** 0.06
845 H 25.791561953944097 146.1284882367894 1.77884575323759 H 0.0 **** 0.06
846 C 41.2510647328686 14.14864531504972 2.1814254136425077 C 0.0 **** -0.24
847 H 41.14675552160584 13.108849306916568 1.8705049322146508 H 0.0 **** 0.06
848 H 41.5500830293273 14.755098202165044 1.3259684270476981 H 0.0 **** 0.06
849 H 42.00889620704508 14.220049104128861 2.960941042272424 H 0.0 **** 0.06
850 H 40.29724675388621 14.508811374767106 2.5671809825125322 H 0.0 **** 0.06
851 C 136.21686880576934 73.1864033855202 45.47868002053485 C 0.0 **** -0.24
852 H 136.38097458837933 74.26376861289047 45.47761631169929 H 0.0 **** 0.06
853 H 135.19883235077813 72.97363362875896 45.154486466514925 H 0.0 **** 0.06
854 H 136.36742543947577 72.79771444546199 46.48629319548277 H 0.0 **** 0.06
855 H 136.92248322287622 72.71115221599759 44.79792141221337 H 0.0 **** 0.06
856 C 111.22888472704437 69.75809517613749 40.66943534953121 C 0.0 **** -0.24
857 H 110.67218613533242 70.47494328122286 40.06724010023778 H 0.0 **** 0.06
858 H 110.56583651687345 68.94765888999103 40.974103701196 H 0.0 **** 0.06
859 H 111.6235867470208 70.2568990374711 41.5552794282998 H 0.0 **** 0.06
860 H 112.05287954553239 69.35286066710228 40.082820316670535 H 0.0 **** 0.06
861 C 189.3220238333413 138.1832719933919 190.2892377540455 C 0.0 **** -0.24
862 H 188.55565633881025 138.59034165031497 189.6295144457734 H 0.0 **** 0.06
863 H 189.57896291208743 137.17395570990956 189.96870909931746 H 0.0 **** 0.06
864 H 188.94275037535266 138.15522529299898 191.31102282023124 H 0.0 **** 0.06
865 H 190.2091535968657 138.8162183912098 190.2484045797948 H 0.0 **** 0.06
866 C 76.58007369121117 162.13329303844358 104.3607011910965 C 0.0 **** -0.24
867 H 75.78227875998655 161.47135832965301 104.0258544466609 H 0.0 **** 0.06
868 H 76.20270968443853 162.7887152354421 105.14673227806816 H 0.0 **** 0.06
869 H 76.92847287687576 162.7355647845874 103.52238000713521 H 0.0 **** 0.06
870 H 77.40683612623121 161.5383105394855 104.74901986083592 H 0.0 **** 0.06
871 C 15.558431945161374 60.14876649610471 161.48982002866273 C 0.0 **** -0.24
872 H 15.354988396920248 59.82928471511332 162.51213006327225 H 0.0 **** 0.06
873 H 15.255646759334866 59.36276681816213 160.7968464692077 H 0.0 **** 0.06
874 H 16.624417301334233 60.34245933107121 161.37574566048613 H 0.0 **** 0.06
875 H 14.99794769819647 61.058743284659215 161.27499139713655 H 0.0 **** 0.06
876 C 62.72835509002675 146.2660739225814 39.71518198127757 C 0.0 **** -0.24
877 H 62.736786320208125 145.36448808856883 40.32778102048411 H 0.0 **** 0.06
878 H 63.73182400457924 146.69194233658342 39.683027032361764 H 0.0 **** 0.06
879 H 62.0392636044738 146.99157560818185 40.14696421919285 H 0.0 **** 0.06
880 H 62.4067267743109 146.01591999321792 38.704168172287524 H 0.0 **** 0.06
881 C 54.81965390657176 19.81297082154323 24.085099051502397 C 0.0 **** -0.24
882 H 54.90172809063431 19.69123077683065 23.005433430392998 H 0.0 **** 0.06
883 H 55.504831765470016 20.594709293240797 24.41505961759964 H 0.0 **** 0.06
884 H 55.0761690668397 18.874518356322397 24.576713358698555 H 0.0 **** 0.06
885 H 53.79782731845893 20.091777501482042 24.34285852410335 H 0.0 **** 0.06
886 C 41.333586256279375 116.25602349352667 81.90274287515425 C 0.0 **** -0.24
887 H 41.29855427403061 115.2716790160988 81.43553692520126 H 0.0 **** 0.06
888 H 41.28217801663811 116.14451352309686 82.98665820471777 H 0.0 **** 0.06
889 H 40.48814332001271 116.85247192592391 81.55842875635128 H 0.0 **** 0.06
890 H 42.26414398604089 116.75402493550322 81.6318544463208 H 0.0 **** 0.06
891 C 68.29388050096044 70.77878173749986 15.907545152184056 C 0.0 **** -0.24
892 H 67.70309774525866 71.66126426858553 16.151954620049338 H 0.0 **** 0.06
893 H 68.9747685400855 71.01353205114009 15.08913299460501 H 0.0 **** 0.06
894 H 67.62943828919644 69.96806350152139 15.60707852938134 H 0.0 **** 0.06
895 H 68.86770060305022 70.47286663487716 16.78140331443302 H 0.0 **** 0.06
896 C 66.22364648464571 40.93836469285384 158.67256087094393 C 0.0 **** -0.24
897 H 65.38092595381798 40.83339167092032 159.3566693986567 H 0.0 **** 0.06
898 H 66.88372467632615 41.72999238219052 159.02923592886168 H 0.0 **** 0.06
899 H 65.85474903486264 41.19241776470781 157.67868743973082 H 0.0 **** 0.06
900 H 66.77322164235014 39.99842069365175 158.62639706320067 H 0.0 **** 0.06
901 C 190.65377276030816 140.55655289250376 33.825218938519924 C 0.0 **** -0.24
902 H 189.8484781896695 140.36046733391098 33.11707573455442 H 0.0 **** 0.06
903 H 191.13918050308445 139.61716649104983 34.09158375252662 H 0.0 **** 0.06
904 H 190.2448671735427 141.02203778283678 34.7211763528378 H 0.0 **** 0.06
905 H 191.38288461402607 141.22572933716134 33.368980556549786 H 0.0 **** 0.06
906 C 159.20416234616135 97.46920733104378 192.9148882882082 C 0.0 **** -0.24
907 H 159.67593956218698 97.52941320520051 191.93449082909842 H 0.0 **** 0.06
908 H 159.87204080146188 97.89314015808947 193.66547941023475 H 0.0 **** 0.06
909 H 159.000705327324 96.42614821114387 193.15647385934835 H 0.0 **** 0.06
910 H 158.26796369367258 98.02812774974097 192.90310905415123 H 0.0 **** 0.06
911 C 29.13792416313632 21.5434235108047 133.85240561419124 C 0.0 **** -0.24
912 H 28.206237860645956 20.992413764433593 133.72532859443095 H 0.0 **** 0.06
913 H 29.84912437443552 21.23565828803072 133.08615924399032 H 0.0 **** 0.06
914 H 29.551835392930855 21.33425119805449 134.83876108609968 H 0.0 **** 0.06
915 H 28.943025132311504 22.612100663095305 133.7599166673803 H 0.0 **** 0.06
916 C 166.17452071766883 5.308200468762209 22.96456624713926 C 0.0 **** -0.24
917 H 165.52451037848527 4.445548250962361 22.8162779983644 H 0.0 **** 0.06
918 H 165.57579128075105 6.220027896870732 22.95434243635208 H 0.0 **** 0.06
919 H 166.91239195902412 5.349112643406102 22.16419703385435 H 0.0 **** 0.06
920 H 166.68322607229862 5.218132403902757 23.92459661015627 H 0.0 **** 0.06
921 C 105.84665578799135 154.50984803508618 126.30777900569271 C 0.0 **** -0.24
922 H 105.08327224757693 155.28424474714217 126.38473997407687 H 0.0 **** 0.06
923 H 106.63316460118943 154.7015658038551 127.03853539010015 H 0.0 **** 0.06
924 H 106.27194310876592 154.518295496849 125.30424573981213 H 0.0 **** 0.06
925 H 105.39757776601371 153.53652929650082 126.50370304861477 H 0.0 **** 0.06
926 C 162.3782259152204 70.5695889566716 187.8701751752732 C 0.0 **** -0.24
927 H 161.83633828421532 69.71860004736291 187.4591577487438 H 0.0 **** 0.06
928 H 163.1150703379657 70.91625575444851 187.14458083764285 H 0.0 **** 0.06
929 H 162.88543814960576 70.26907016247213 188.78732287311198 H 0.0 **** 0.06
930 H 161.67776964042167 71.37463758958421 188.0894862802894 H 0.0 **** 0.06
931 C 160.57408177875138 171.1940339297156 13.13430805027852 C 0.0 **** -0.24
932 H 160.6493841542331 172.13492120558044 13.679470750351072 H 0.0 **** 0.06
933 H 160.85037900448535 170.36987479482724 13.792721497170078 H 0.0 **** 0.06
934 H 161.2477161272701 171.21585569063242 12.27761950760538 H 0.0 **** 0.06
935 H 159.5496884478585 171.05499755627875 12.78844842878604 H 0.0 **** 0.06
936 C 91.47975726226053 151.32987531443405 171.91410626567512 C 0.0 **** -0.24
937 H 91.6692027884535 151.98045369639388 171.06053152620746 H 0.0 **** 0.06
938 H 92.21954497648403 151.52404991090654 172.69034272062427 H 0.0 **** 0.06
939 H 91.54790387343229 150.28873063223782 171.59901188566357 H 0.0 **** 0.06
940 H 90.48148217360318 151.52666618030887 172.3067370256764 H 0.0 **** 0.06
941 C 19.521619141087683 45.34511153522146 82.4962506663345 C 0.0 **** -0.24
942 H 20.33690011186343 44.7059050535577 82.83494033572879 H 0.0 **** 0.06
943 H 18.567356487384956 44.87514192844543 82.73567926569314 H 0.0 **** 0.06
944 H 19.596012933203383 45.48744220079078 81.4180993644108 H 0.0 **** 0.06
945 H 19.58662174285348 46.31125904944332 82.99512569191626 H 0.0 **** 0.06
946 C 194.79807968446306 112.3455715554312 151.92498374804683 C 0.0 **** -0.24
947 H 194.54989733439498 113.38009519194966 151.6864317354049 H 0.0 **** 0.06
948 H 195.16070005151906 112.28767324461282 152.95165455923822 H 0.0 **** 0.06
949 H 195.57260704398564 111.99141774278198 151.2443567291897 H 0.0 **** 0.06
950 H 193.90761146918032 111.72567352487621 151.81783672626835 H 0.0 **** 0.06
951 C 36.46372074654744 13.405519856972944 98.05343261346124 C 0.0 **** -0.24
952 H 35.5031513560384 13.897213976927532 98.2083326724883 H 0.0 **** 0.06
953 H 36.29934428153554 12.413617453358086 97.63238073618919 H 0.0 **** 0.06
954 H 36.98199570706102 13.313388443193304 99.00818366059548 H 0.0 **** 0.06
955 H 37.068653870580576 13.996150756261983 97.36658277174197 H 0.0 **** 0.06
956 C 138.66028040582242 20.732624764460866 185.8854224270786 C 0.0 **** -0.24
957 H 138.89193779819263 20.73257076986212 186.95054661378805 H 0.0 **** 0.06
958 H 138.4370502064877 19.71572692476616 185.56326138755998 H 0.0 **** 0.06
959 H 139.51699282044777 21.111306163110157 185.3284997155071 H 0.0 **** 0.06
960 H 137.79599701286796 21.370796993933226 185.70225556875522 H 0.0 **** 0.06
961 C 58.03478191050817 160.2655583623348 174.51258352784336 C 0.0 **** -0.24
962 H 57.31681853263892 159.44544943891205 174.48647533559358 H 0.0 **** 0.06
963 H 58.51477399911539 160.35961119677415 173.5378418345084 H 0.0 **** 0.06
964 H 58.79049131367863 160.0617251140323 175.27216632108517 H 0.0 **** 0.06
965 H 57.517459957619906 161.1936334105573 174.75458222914375 H 0.0 **** 0.06
966 C 144.2934860012172 58.70303457591868 98.49781933289376 C 0.0 **** -0.24
967 H 145.13483219086632 59.29076984722593 98.86530338358693 H 0.0 **** 0.06
968 H 144.24152339125922 58.78605009703283 97.41139904974716 H 0.0 **** 0.06
969 H 143.36991051659393 59.078938280740545 98.93601606101174 H 0.0 **** 0.06
970 H 144.4299740747046 57.65867934786918 98.77699638653917 H 0.0 **** 0.06
971 C 83.82808420534283 132.02032539883075 7.04014448108407 C 0.0 **** -0.24
972 H 84.38287430491684 131.13286380371923 7.345720263991268 H 0.0 **** 0.06
973 H 83.66836896026953 132.66407259460794 7.905837439119239 H 0.0 **** 0.06
974 H 82.86452724729742 131.720987444617 6.627001075311654 H 0.0 **** 0.06
975 H 84.39630098670892 132.56054628149647 6.283997184383537 H 0.0 **** 0.06
976 C 78.80661240369628 160.12721454942243 47.843812672895666 C 0.0 **** -0.24
977 H 78.35045794854199 160.2354707601309 46.859742863323504 H 0.0 **** 0.06
978 H 79.73142193471995 159.5574531710479 47.753807210827716 H 0.0 **** 0.06
979 H 78.11860270207013 159.60176672270597 48.50646712596847 H 0.0 **** 0.06
980 H 79.02474872519318 161.11348005138916 48.253222715839144 H 0.0 **** 0.06
981 C 47.777018467451825 35.62946096726421 150.54202073331882 C 0.0 **** -0.24
982 H 47.67176354488825 34.69814943952724 149.98466273096682 H 0.0 **** 0.06
983 H 48.26647450630384 35.427432817534026 151.4954797647294 H 0.0 **** 0.06
984 H 46.79189689542662 36.057526099572826 150.72302730180215 H 0.0 **** 0.06
985 H 48.378809528967736 36.332313578982365 149.96608636078594 H 0.0 **** 0.06
986 C 88.17848653219144 148.10891103610655 188.71376367174298 C 0.0 **** -0.24
987 H 88.8557919973785 147.6874496312096 187.97198591458357 H 0.0 **** 0.06
988 H 88.41831340438705 149.16097258129165 188.86860960718977 H 0.0 **** 0.06
989 H 88.28691505035843 147.56924372135035 189.65439278101854 H 0.0 **** 0.06
990 H 87.15072967085518 148.0190511873027 188.35990387502147 H 0.0 **** 0.06
991 C 66.44615838351854 24.257368532193922 60.93502427730107 C 0.0 **** -0.24
992 H 66.51020393731451 25.321813471626484 61.15772989218624 H 0.0 **** 0.06
993 H 65.39975831727861 23.967877515266906 60.8395751820824 H 0.0 **** 0.06
994 H 66.90868108907915 23.68902648533421 61.74264533355051 H 0.0 **** 0.06
995 H 66.96741751990845 24.04903705431181 60.00022290317122 H 0.0 **** 0.06
996 C 127.86311470363117 23.514515239795983 177.735975061478 C 0.0 **** -0.24
997 H 127.89739498386365 24.599724987399455 177.64229828615518 H 0.0 **** 0.06
998 H 127.96646778980914 23.23747360876 178.78558678900274 H 0.0 **** 0.06
999 H 128.67893135979878 23.074809700859745 177.1619185205728 H 0.0 **** 0.06
1000 H 126.91081745052989 23.146462660432192 177.35480592247558 H 0.0 **** 0.06
1001 C 192.7391392000643 98.21014104420291 147.45807975871097 C 0.0 **** -0.24
1002 H 193.5762364720095 97.80626571011163 146.88864095228152 H 0.0 **** 0.06
1003 H 193.11838067777296 98.82781345981704 148.27276766926747 H 0.0 **** 0.06
1004 H 192.15037443376798 97.38973560840253 147.86866063646613 H 0.0 **** 0.06
1005 H 192.1129439640225 98.81557661112802 146.80390015719894 H 0.0 **** 0.06
1006 C 49.49052826858622 34.88533020993012 110.86754960320354 C 0.0 **** -0.24
1007 H 48.47609014153156 34.69028421971494 111.21555396133249 H 0.0 **** 0.06
1008 H 49.551041033425236 35.900871453948724 110.47626470820731 H 0.0 **** 0.06
1009 H 49.746440462079676 34.17600863101319 110.0801980051655 H 0.0 **** 0.06
1010 H 50.186554308791074 34.77414955964858 111.6984083612891 H 0.0 **** 0.06
1011 C 16.844941836123468 60.569571118863834 19.09114410577888 C 0.0 **** -0.24
1012 H 16.893220418891502 61.63632507817434 18.874176745928082 H 0.0 **** 0.06
1013 H 17.707725567537864 60.070334152104664 18.651315338958227 H 0.0 **** 0.06
1014 H 15.929706156811847 60.15389256640424 18.669216763011832 H 0.0 **** 0.06
1015 H 16.84880120322117 60.41765816668851 20.170814081848334 H 0.0 **** 0.06
1016 C 89.65481541589838 35.5178431636547 173.45919704132018 C 0.0 **** -0.24
1017 H 89.58780113611974 36.51536049414278 173.89245784675057 H 0.0 **** 0.06
1018 H 90.60942169648595 35.06588224701548 173.73078291564858 H 0.0 **** 0.06
1019 H 89.58181871247882 35.58799279432287 172.37423428729346 H 0.0 **** 0.06
1020 H 88.8396968907876 34.901461274174395 173.83879399329624 H 0.0 **** 0.06
1021 C 92.97419234986307 12.552110048743835 91.27801611710555 C 0.0 **** -0.24
1022 H 92.33776585660604 11.679550297165378 91.42978076937771 H 0.0 **** 0.06
1023 H 92.39841354008081 13.458280975973004 91.46500190531395 H 0.0 **** 0.06
1024 H 93.34161789057214 12.559033617342841 90.25227677455166 H 0.0 **** 0.06
1025 H 93.81888899514388 12.508394755193358 91.96637522248551 H 0.0 **** 0.06
1026 C 6.596558711938435 86.08850465204844 111.16880334343583 C 0.0 **** -0.24
1027 H 6.260322933638527 86.81861301027695 110.43181759458253 H 0.0 **** 0.06
1028 H 6.703572906925778 85.11427325897824 110.69136136119852 H 0.0 **** 0.06
1029 H 5.863621402553207 86.02152220174654 111.97246180464617 H 0.0 **** 0.06
1030 H 7.556543557481959 86.40147295077486 111.57789819332373 H 0.0 **** 0.06
1031 C 39.328840632025006 139.66315913910447 4.820927709510073 C 0.0 **** -0.24
1032 H 39.32558671368783 140.68096099755797 5.2111282645153025 H 0.0 **** 0.06
1033 H 39.27148259667594 139.6913014182881 3.7330500792086525 H 0.0 **** 0.06
1034 H 38.46907285190416 139.12131178552434 5.216398967223995 H 0.0 **** 0.06
1035 H 40.2464206925075 139.16074835392547 5.124955487490837 H 0.0 **** 0.06
1036 C 23.147790084537007 137.4855706682864 87.64819328792197 C 0.0 **** -0.24
1037 H 23.246193006224843 137.2689607823999 86.58361273940235 H 0.0 **** 0.06
1038 H 22.728823128303247 136.61729610573167 88.15768487341222 H 0.0 **** 0.06
1039 H 22.487931792946654 138.34151939395596 87.78524973328913 H 0.0 **** 0.06
1040 H 24.129136553302516 137.7125537852618 88.0637091552729 H 0.0 **** 0.06
1041 C 149.94477392909323 103.25495035353924 136.8656600218258 C 0.0 **** -0.24
1042 H 148.94385042768113 103.11817407692223 136.45718595682828 H 0.0 **** 0.06
1043 H 149.88169844164548 103.79934880709936 137.80841635904278 H 0.0 **** 0.06
1044 H 150.55137112821535 103.82032278914119 136.15880394663952 H 0.0 **** 0.06
1045 H 150.402226013169 102.28077483178674 137.03901033439118 H 0.0 **** 0.06
1046 C 37.143877860995005 156.4385697785125 42.89736893928796 C 0.0 **** -0.24
1047 H 37.10583980457878 156.28438307960198 41.81913323026188 H 0.0 **** 0.06
1048 H 36.26059247651838 156.99319358546796 43.215947140671744 H 0.0 **** 0.06
1049 H 38.04004055730671 157.00379954325692 43.152342283667934 H 0.0 **** 0.06
1050 H 37.16838192761115 155.4722226585665 43.401727434815996 H 0.0 **** 0.06
1051 C 180.16345830682974 125.34746143118187 28.706630524812226 C 0.0 **** -0.24
1052 H 180.93522088994584 124.64539915402511 29.02203463730274 H 0.0 **** 0.06
1053 H 179.22255936407544 124.81462462063118 28.56707119073326 H 0.0 **** 0.06
1054 H 180.45967353660768 125.81540956003599 27.768577894335294 H 0.0 **** 0.06
1055 H 180.0368418881945 126.11433274855764 29.470782568819573 H 0.0 **** 0.06
1056 C 171.46909838138146 31.801395969616237 141.81399065047302 C 0.0 **** -0.24
1057 H 171.4131892850703 31.915408284233422 142.89721688616672 H 0.0 **** 0.06
1058 H 170.76769258095416 32.488216255697466 141.34021382403844 H 0.0 **** 0.06
1059 H 171.21480822887676 30.777101028709637 141.54332655403533 H 0.0 **** 0.06
1060 H 172.48143848894333 32.02583376456059 141.47707837940473 H 0.0 **** 0.06
1061 C 98.37057322452017 179.2414347911684 73.58060201095941 C 0.0 **** -0.24
1062 H 97.7457530101419 178.84492285005143 74.38129276031981 H 0.0 **** 0.06
1063 H 99.37991739388454 178.83966861634906 73.67507419101942 H 0.0 **** 0.06
1064 H 98.40357001017281 180.3281619235335 73.65124202517596 H 0.0 **** 0.06
1065 H 97.9530029947579 178.95127149655065 72.61654804725899 H 0.0 **** 0.06
1066 C 119.78290206013844 86.41644763244315 60.78786662666886 C 0.0 **** -0.24
1067 H 120.45761523510879 86.97234753812461 60.137644290840285 H 0.0 **** 0.06
1068 H 119.80099714730068 85.36147767069798 60.512612833709795 H 0.0 **** 0.06
1069 H 118.77043848357994 86.80361012377688 60.67756534353498 H 0.0 **** 0.06
1070 H 120.10293976193717 86.52710227463848 61.824176962837214 H 0.0 **** 0.06
1071 C 44.2940902948867 38.994108531214806 151.7959494209959 C 0.0 **** -0.24
1072 H 45.19578773300836 39.48514142573279 151.42840740445888 H 0.0 **** 0.06
1073 H 44.56872777729541 38.23151154247843 152.5248408887949 H 0.0 **** 0.06
1074 H 43.76913661132693 38.528540547596194 150.96128554592286 H 0.0 **** 0.06
1075 H 43.6452399160616 39.732003852184775 152.26726073353893 H 0.0 **** 0.06
1076 C 25.816835765633684 47.40145694518523 188.55961379232315 C 0.0 **** -0.24
1077 H 25.735853121124975 48.33656762269801 188.0064768386378 H 0.0 **** 0.06
1078 H 24.916612789532834 46.808207076398176 188.40314385492024 H 0.0 **** 0.06
1079 H 25.931748434051798 47.61679154525352 189.6222354487668 H 0.0 **** 0.06
1080 H 26.68581948529372 46.84507522176983 188.20628620198602 H 0.0 **** 0.06
1081 C 193.70652070220225 3.773890432511479 126.51074649704651 C 0.0 **** -0.24
1082 H 193.88460543718847 3.752841368528209 125.43601051680776 H 0.0 **** 0.06
1083 H 193.17922479249256 2.8671613179199653 126.80902160780931 H 0.0 **** 0.06
1084 H 193.10303348458478 4.645388290103909 126.7627372217118 H 0.0 **** 0.06
1085 H 194.66068556937938 3.8285699836746687 127.03575245490663 H 0.0 **** 0.06
1086 C 72.37276411485729 115.59750731707504 100.11275652041058 C 0.0 **** -0.24
1087 H 71.56904969389137 116.01764237383173 99.5086188441237 H 0.0 **** 0.06
1088 H 72.28772049879913 115.96509951322344 101.1354036953258 H 0.0 **** 0.06
1089 H 73.33461872309171 115.89847883333096 99.69681955956816 H 0.0 **** 0.06
1090 H 72.29967764169592 114.50978578291983 100.10916175319551 H 0.0 **** 0.06
1091 C 83.77215977406624 122.84556020114593 174.07315412694402 C 0.0 **** -0.24
1092 H 84.37575570756681 122.32910849473166 173.3268926022813 H 0.0 **** 0.06
1093 H 83.79383489643433 122.2863201188735 175.00876591198136 H 0.0 **** 0.06
1094 H 82.74399911070284 122.92198531386327 173.7181392624683 H 0.0 **** 0.06
1095 H 84.17411258903721 123.84527901790602 174.23660104798103 H 0.0 **** 0.06
1096 C 77.88005350538626 12.681696352652068 125.07166500957635 C 0.0 **** -0.24
1097 H 78.47116353466805 13.568710947023277 124.84258917602773 H 0.0 **** 0.06
1098 H 78.54529814350866 11.865389531468509 125.35543684795223 H 0.0 **** 0.06
1099 H 77.30395560648923 12.393364881155861 124.19206574338065 H 0.0 **** 0.06
1100 H 77.2007781768063 12.899913711941252 125.89527042381968 H 0.0 **** 0.06
1101 C 37.94816862278327 125.89959684373144 84.92237749922504 C 0.0 **** -0.24
1102 H 38.576583328542455 125.0129190759219 84.84192773484597 H 0.0 **** 0.06
1103 H 36.94893844225106 125.608421494151 85.24581317922025 H 0.0 **** 0.06
1104 H 37.88809615189356 126.39012976606159 83.95111882035405 H 0.0 **** 0.06
1105 H 38.380979951224305 126.58580503512411 85.650396974866 H 0.0 **** 0.06
1106 C 126.46446373582557 90.46650630669055 199.0913209857145 C 0.0 **** -0.24
1107 H 126.53730995516165 89.53197731113062 199.64774229231446 H 0.0 **** 0.06
1108 H 127.06965232668418 90.39979827941917 198.18730301704755 H 0.0 **** 0.06
1109 H 126.82598509857596 91.28739669196742 199.71119272813115 H 0.0 **** 0.06
1110 H 125.42380397130336 90.64793232815583 198.81983145030537 H 0.0 **** 0.06
1111 C 156.75620158549816 77.75434270334455 80.98508311582879 C 0.0 **** -0.24
1112 H 157.74727696912728 77.88569697272214 80.54973228955168 H 0.0 **** 0.06
1113 H 156.31283903293019 76.83231625903045 80.60645452779056 H 0.0 **** 0.06
1114 H 156.12529489793593 78.59981755742683 80.71200493877723 H 0.0 **** 0.06
1115 H 156.83953775383216 77.69837600818994 82.0702367843619 H 0.0 **** 0.06
1116 C 100.92641840240776 120.94798733611813 80.14490369650989 C 0.0 **** -0.24
1117 H 101.40771529218875 120.149452230022 80.70896189990384 H 0.0 **** 0.06
1118 H 99.87329183346225 121.00543557624997 80.42270910170274 H 0.0 **** 0.06
1119 H 101.01053501215492 120.74119081369693 79.07773206577616 H 0.0 **** 0.06
1120 H 101.41384023039396 121.89709349094917 80.37085984201039 H 0.0 **** 0.06
1121 C 34.09674232582671 120.95258084814486 175.54262018174512 C 0.0 **** -0.24
1122 H 35.12670845762017 121.0815145504501 175.20946922874532 H 0.0 **** 0.06
1123 H 33.783190774092134 121.83491100035033 176.100995163356 H 0.0 **** 0.06
1124 H 34.029173803817116 120.07385730761672 176.1835344531513 H 0.0 **** 0.06
1125 H 33.448757522083184 120.82232005512515 174.67623257287875 H 0.0 **** 0.06
1126 C 149.50998179677967 181.37147638978482 78.48284986661176 C 0.0 **** -0.24
1127 H 149.67510638882828 182.2449378114429 79.11375215640007 H 0.0 **** 0.06
1128 H 149.90286541201937 181.5661728269934 77.48380908012356 H 0.0 **** 0.06
1129 H 148.44150715165327 181.16497385742286 78.41949117844146 H 0.0 **** 0.06
1130 H 150.02206085352856 180.51135519058005 78.91332428886238 H 0.0 **** 0.06
1131 C 148.9775285756038 117.63981944131416 187.95795182959301 C 0.0 **** -0.24
1132 H 148.65507342072823 117.52343178866647 188.99190939017632 H 0.0 **** 0.06
1133 H 148.11323229069973 117.85900844875925 187.33002522553215 H 0.0 **** 0.06
1134 H 149.4491369359602 116.71675249842588 187.61826418836034 H 0.0 **** 0.06
1135 H 149.6934708959537 118.45889618090357 187.8906349034817 H 0.0 **** 0.06
1136 C 87.28517706830576 156.55401780720473 69.13555691732677 C 0.0 **** -0.24
1137 H 88.33158771543935 156.7401234656062 68.89381092931598 H 0.0 **** 0.06
1138 H 87.17993437240293 156.41755092949762 70.21169977107616 H 0.0 **** 0.06
1139 H 86.94758933059538 155.65438678160075 68.61971270883387 H 0.0 **** 0.06
1140 H 86.68172993772285 157.40291279035617 68.81533740914819 H 0.0 **** 0.06
1141 C 6.428149101575308 0.20171816014942578 98.47194552161628 C 0.0 **** -0.24
1142 H 5.426332691699933 0.6264610214850919 98.40799971940154 H 0.0 **** 0.06
1143 H 6.828033368545903 0.36496680966187967 99.47289664007593 H 0.0 **** 0.06
1144 H 7.074730360359837 0.6840583996337415 97.7385184543437 H 0.0 **** 0.06
1145 H 6.382292173864315 -0.8679079286547093 98.2681592447091 H 0.0 **** 0.06
1146 C 5.259730147556581 159.21112307929928 11.454081469583201 C 0.0 **** -0.24
1147 H 4.771379967411889 159.53025453926085 10.532568623375425 H 0.0 **** 0.06
1148 H 5.39104654558696 158.12919589120497 11.439207193794573 H 0.0 **** 0.06
1149 H 4.643448464916162 159.4919873431933 12.307367943626048 H 0.0 **** 0.06
1150 H 6.232874198108817 159.69516919867698 11.534266790482661 H 0.0 **** 0.06
1151 C 114.17081771142276 25.294691307411654 10.160106275211191 C 0.0 **** -0.24
1152 H 113.4927933402962 24.487318610126124 10.437564329456151 H 0.0 **** 0.06
1153 H 114.94599567327651 24.90619209583849 9.49904183938213 H 0.0 **** 0.06
1154 H 114.6303590264603 25.708360020369184 11.057454393690584 H 0.0 **** 0.06
1155 H 113.61224253187612 26.076729987706756 9.645165533226496 H 0.0 **** 0.06
1156 C 66.00312942746764 100.8992506000045 19.57569721018463 C 0.0 **** -0.24
1157 H 65.81484048665317 100.95065526888578 20.648445798640168 H 0.0 **** 0.06
1158 H 67.06126731667604 101.0778840899377 19.38283980108953 H 0.0 **** 0.06
1159 H 65.40729700508922 101.6567384400455 19.06576820067835 H 0.0 **** 0.06
1160 H 65.72845232870853 99.91121686586678 19.20518198504361 H 0.0 **** 0.06
1161 C 58.64256493348921 81.03501943931818 102.78296259889893 C 0.0 **** -0.24
1162 H 59.29903482205958 80.25524772064776 103.16961365993714 H 0.0 **** 0.06
1163 H 58.10148985416026 80.6576708415223 101.91536679915703 H 0.0 **** 0.06
1164 H 59.237512507165206 81.90040128563069 102.49238677528592 H 0.0 **** 0.06
1165 H 57.93129574788543 81.32697985628667 103.55673968644095 H 0.0 **** 0.06
1166 C 33.51320322420145 140.35474698037663 55.638239138405766 C 0.0 **** -0.24
1167 H 34.45951505505167 140.8209695472793 55.36310075619697 H 0.0 **** 0.06
1168 H 33.070764020614035 139.88489069152024 54.76067531190439 H 0.0 **** 0.06
1169 H 32.834811618770715 141.1140043051461 56.02600556816327 H 0.0 **** 0.06
1170 H 33.69071186339835 139.60076650002193 56.404342117652135 H 0.0 **** 0.06
1171 C 173.57859252858134 110.26400434960178 99.8758167775301 C 0.0 **** -0.24
1172 H 172.82347228581995 110.23611889469356 99.08940560559631 H 0.0 **** 0.06
1173 H 173.12291323310964 109.98663481718586 100.82555630585011 H 0.0 **** 0.06
1174 H 173.98767699545652 111.27183726076402 99.94952846794871 H 0.0 **** 0.06
1175 H 174.37849208403196 109.56355278194061 99.6362902042257 H 0.0 **** 0.06
1176 C 15.543076696501444 139.53804703432692 183.15890175135343 C 0.0 **** -0.24
1177 H 15.588221010957852 140.62738479702315 183.16664294475484 H 0.0 **** 0.06
1178 H 16.53466889871926 139.13173122132832 183.35962558780028 H 0.0 **** 0.06
1179 H 15.201346599354295 139.19624388839654 182.1827860840756 H 0.0 **** 0.06
1180 H 14.848381645005148 139.1977770192292 183.9266059763478 H 0.0 **** 0.06
1181 C 45.352007851085915 45.02532497688003 74.01345158463512 C 0.0 **** -0.24
1182 H 44.652295956149715 44.4937092885167 74.65947537505626 H 0.0 **** 0.06
1183 H 45.72519900356136 45.90786260265918 74.53165941405206 H 0.0 **** 0.06
1184 H 44.84274906791063 45.32805232524342 73.09864104602308 H 0.0 **** 0.06
1185 H 46.18611882111617 44.369266588725196 73.76467264240219 H 0.0 **** 0.06
1186 C 161.2896303294583 13.531558729912717 135.20237342065332 C 0.0 **** -0.24
1187 H 161.4140161923583 14.595732167395909 135.00298504198537 H 0.0 **** 0.06
1188 H 160.96530885375972 13.39157096631024 136.2337989875087 H 0.0 **** 0.06
1189 H 162.23941853498064 13.020317959107786 135.04636087365645 H 0.0 **** 0.06
1190 H 160.5396674607042 13.121369869236219 134.5257224868593 H 0.0 **** 0.06
1191 C 20.274550830508502 116.38342602426519 108.78622048459368 C 0.0 **** -0.24
1192 H 20.34139757359236 115.79948647235693 109.70442678211884 H 0.0 **** 0.06
1193 H 20.00180267163435 115.72791404875602 107.95905715240531 H 0.0 **** 0.06
1194 H 21.238381868418116 116.84780123508494 108.58041219556162 H 0.0 **** 0.06
1195 H 19.515979248624035 117.15670835328825 108.90307618365614 H 0.0 **** 0.06
1196 C 77.7524565107153 7.378827666148624 9.07215561716231 C 0.0 **** -0.24
1197 H 77.69839233419296 7.015395148263167 10.098386854882364 H 0.0 **** 0.06
1198 H 76.94278352583 6.941845561835834 8.488066607383132 H 0.0 **** 0.06
1199 H 78.71042945670249 7.093962807763177 8.636625435479715 H 0.0 **** 0.06
1200 H 77.65981318990417 8.46449382493438 9.066690142132131 H 0.0 **** 0.06
1201 C 119.72706937824856 10.158217233095172 3.2174649484574047 C 0.0 **** -0.24
1202 H 118.65070524621049 10.093882646944877 3.0539900966749656 H 0.0 **** 0.06
1203 H 120.09237643678003 9.20451158063176 3.5986144828863758 H 0.0 **** 0.06
1204 H 119.93780312296985 10.943788986061634 3.942584921588349 H 0.0 **** 0.06
1205 H 120.22480918856814 10.388432577353854 2.2757879094464215 H 0.0 **** 0.06
1206 C 93.5381435332009 118.80465872438623 133.25381615575935 C 0.0 **** -0.24
1207 H 94.0757347740356 117.85935347370113 133.331284433569 H 0.0 **** 0.06
1208 H 92.5914832259289 118.72816435646217 133.788553992095 H 0.0 **** 0.06
1209 H 93.34591572147025 119.02764626383367 132.20473813705033 H 0.0 **** 0.06
1210 H 94.1398127772087 119.60129240194519 133.6903474458463 H 0.0 **** 0.06
1211 C 13.217220015717949 99.14415771730876 133.82884990289293 C 0.0 **** -0.24
1212 H 13.649265135586887 99.90878448636246 134.4740867516185 H 0.0 **** 0.06
1213 H 13.703773360741344 98.187503187353 134.02395673484838 H 0.0 **** 0.06
1214 H 13.367297275594872 99.42200968356411 132.7855403679081 H 0.0 **** 0.06
1215 H 12.14992616380593 99.05688771040931 134.03182886297688 H 0.0 **** 0.06
1216 C 148.1176665617681 141.08092693480137 180.47793257635846 C 0.0 **** -0.24
1217 H 147.45319288299004 141.86301518809796 180.8454422766528 H 0.0 **** 0.06
1218 H 147.62085625250808 140.5286679367597 179.68014237720476 H 0.0 **** 0.06
1219 H 148.3646065621251 140.40114388204438 181.29290944829356 H 0.0 **** 0.06
1220 H 149.03201622213885 141.53378805320585 180.0924961711612 H 0.0 **** 0.06
1221 C 187.96430472050088 180.39764407337555 117.05473396550215 C 0.0 **** -0.24
1222 H 187.7927005721869 181.43580640861833 116.76959246791267 H 0.0 **** 0.06
1223 H 187.03565232502774 179.96553965350154 117.42581502554566 H 0.0 **** 0.06
1224 H 188.72319794528264 180.35705882944094 117.83572601475038 H 0.0 **** 0.06
1225 H 188.30587456134066 179.83450025078167 116.18544989772275 H 0.0 **** 0.06
1226 C 119.3309875448922 52.256160998869476 121.59512089423973 C 0.0 **** -0.24
1227 H 118.83475567356578 51.6638018052179 122.36426341105442 H 0.0 **** 0.06
1228 H 120.40295501290379 52.06022825599595 121.62063150504446 H 0.0 **** 0.06
1229 H 119.14889454096416 53.31473841331757 121.77963829488579 H 0.0 **** 0.06
1230 H 118.93448913172949 51.98452656324514 120.61579282519264 H 0.0 **** 0.06
1231 C 134.9650145478796 184.9479675275904 154.15367138916963 C 0.0 **** -0.24
1232 H 135.60926569443006 184.08320769862402 153.99532184770524 H 0.0 **** 0.06
1233 H 134.177583448983 184.95633494692083 153.39981600522992 H 0.0 **** 0.06
1234 H 135.5562048367276 185.85999908445447 154.07202482640238 H 0.0 **** 0.06
1235 H 134.51861498698463 184.89109679354974 155.14658016638276 H 0.0 **** 0.06
1236 C 66.10901938526935 62.02820044439568 50.158771612154624 C 0.0 **** -0.24
1237 H 66.75178159363095 61.17605818692239 49.93578950860493 H 0.0 **** 0.06
1238 H 66.34724827287283 62.84943154948681 49.482651684919205 H 0.0 **** 0.06
1239 H 66.2709193135512 62.3465562210869 51.188447623507955 H 0.0 **** 0.06
1240 H 65.06616067064812 61.73963502555844 50.0273357621372 H 0.0 **** 0.06
1241 C 163.004173391645 141.194732249057 162.3204220951739 C 0.0 **** -0.24
1242 H 163.73064777962034 141.69640901688055 162.95991570182062 H 0.0 **** 0.06
1243 H 163.46003109526816 140.30584979900053 161.88242270906028 H 0.0 **** 0.06
1244 H 162.69081807693027 141.8716070226467 161.52574752990319 H 0.0 **** 0.06
1245 H 162.13731137120163 140.90433826683764 162.91355297761697 H 0.0 **** 0.06
1246 C 190.46309014204195 103.42339212441433 77.8975921214971 C 0.0 **** -0.24
1247 H 190.33359091275221 104.49651296744034 78.03993079991844 H 0.0 **** 0.06
1248 H 190.97779721370392 103.24153547019756 76.95419270037553 H 0.0 **** 0.06
1249 H 189.48666612674486 102.93894687756665 77.87949144933401 H 0.0 **** 0.06
1250 H 191.0538564548408 103.01771135655855 78.71862497795863 H 0.0 **** 0.06
1251 C 186.64490663556379 12.999311140098271 55.234527987686704 C 0.0 **** -0.24
1252 H 186.00011915591557 13.808276091834905 54.890627562206475 H 0.0 **** 0.06
1253 H 187.62810217191858 13.399270521101407 55.48439542093132 H 0.0 **** 0.06
1254 H 186.74503879773957 12.253840053288698 54.44556595210122 H 0.0 **** 0.06
1255 H 186.205165152888 12.535389840484484 56.118104336659485 H 0.0 **** 0.06
1256 C 106.47918254982488 162.44339550382122 33.12721998515565 C 0.0 **** -0.24
1257 H 106.84756703502023 163.18995126149318 33.830784518857115 H 0.0 **** 0.06
1258 H 107.12298003230148 162.42483688491922 32.2475103315395 H 0.0 **** 0.06
1259 H 105.46230261755613 162.6961247031805 32.82913474782782 H 0.0 **** 0.06
1260 H 106.48517762850531 161.46203546706784 33.6034292438128 H 0.0 **** 0.06
1261 C 131.21587701061713 98.42292694101619 161.6539158431213 C 0.0 **** -0.24
1262 H 131.367138447468 99.46053182542187 161.95276493432794 H 0.0 **** 0.06
1263 H 130.15899213068528 98.16934337774867 161.74449972635068 H 0.0 **** 0.06
1264 H 131.8033433404765 97.7697413576434 162.2999643009539 H 0.0 **** 0.06
1265 H 131.5339638980253 98.29218649936291 160.61942739051153 H 0.0 **** 0.06
1266 C 79.46563284487559 188.3774459824636 41.59701411162871 C 0.0 **** -0.24
1267 H 79.65570751860372 189.0562176191438 42.42904319058789 H 0.0 **** 0.06
1268 H 78.39322748100341 188.20682687853335 41.50619272460278 H 0.0 **** 0.06
1269 H 79.97174415858777 187.42879145491094 41.77964389262161 H 0.0 **** 0.06
1270 H 79.84398607913519 188.8189435534794 40.67503558284517 H 0.0 **** 0.06
1271 C 136.38519681760755 23.327001495322364 143.16041867681471 C 0.0 **** -0.24
1272 H 135.5831413415097 22.87392068914812 142.5781451429847 H 0.0 **** 0.06
1273 H 136.2660646690751 24.41054726410347 143.1584734121825 H 0.0 **** 0.06
1274 H 137.34738187541092 23.066175414567354 142.71903860902464 H 0.0 **** 0.06
1275 H 136.34330628821564 22.957954026861884 144.1850941511797 H 0.0 **** 0.06
1276 C 121.99974453754623 97.19992164893156 48.83013861172202 C 0.0 **** -0.24
1277 H 122.30383037605372 97.74718444784264 47.938991670434206 H 0.0 **** 0.06
1278 H 122.43048703302861 96.19862808727191 48.80669078156609 H 0.0 **** 0.06
1279 H 120.91211929870121 97.1266319248929 48.859253231966875 H 0.0 **** 0.06
1280 H 122.35170949001275 97.72611830051554 49.71736374364954 H 0.0 **** 0.06
1281 C 13.816910940601218 55.46240277901353 69.80791452794105 C 0.0 **** -0.24
1282 H 13.303591230554588 54.50606322198797 69.70816881246715 H 0.0 **** 0.06
1283 H 14.307692497590153 55.710524978243114 68.86660717733733 H 0.0 **** 0.06
1284 H 14.563230564972685 55.39278013499609 70.59972662893514 H 0.0 **** 0.06
1285 H 13.094072602821598 56.238264540983664 70.05671144984741 H 0.0 **** 0.06
1286 C 27.807635588969802 2.16765034514998 197.86940214200575 C 0.0 **** -0.24
1287 H 28.494520072326324 1.5466307299674824 198.44452911019664 H 0.0 **** 0.06
1288 H 27.83704255700603 3.189644742857915 198.2493579265887 H 0.0 **** 0.06
1289 H 26.79634847320392 1.7732992638858391 197.96274693906037 H 0.0 **** 0.06
1290 H 28.104987679558377 2.161190178932479 196.8203260233831 H 0.0 **** 0.06
1291 C 142.42657633343524 0.326212204834178 24.757606672452255 C 0.0 **** -0.24
1292 H 142.89836563145533 0.6814221820841624 25.674099130672687 H 0.0 **** 0.06
1293 H 142.98703483110486 -0.5241460244675125 24.367053382484357 H 0.0 **** 0.06
1294 H 142.4182610987937 1.1272493698342032 24.01853901910721 H 0.0 **** 0.06
1295 H 141.40322307186725 0.01875590051082554 24.972526198049536 H 0.0 **** 0.06
1296 C 110.29946666825674 26.07859858818108 112.21085145146583 C 0.0 **** -0.24
1297 H 110.14915386460598 26.471231567164807 113.2167366820446 H 0.0 **** 0.06
1298 H 109.51854780369717 26.45881170908973 111.55279341632604 H 0.0 **** 0.06
1299 H 110.25715984324552 24.98970969416041 112.23523977936156 H 0.0 **** 0.06
1300 H 111.27439843643248 26.395538346530316 111.8401373768221 H 0.0 **** 0.06
1301 C 98.54517051523311 191.88836589502387 33.592790750232126 C 0.0 **** -0.24
1302 H 98.18917942524311 192.68872616216575 32.94425666119025 H 0.0 **** 0.06
1303 H 98.77551418163497 191.00953606784685 32.990143570735924 H 0.0 **** 0.06
1304 H 97.77332064436081 191.6398298303332 34.3202110225637 H 0.0 **** 0.06
1305 H 99.44405365619727 192.21799334633758 34.114500957364086 H 0.0 **** 0.06
1306 C 114.5576663960203 169.46911481642002 65.8569988072155 C 0.0 **** -0.24
1307 H 114.77795816950095 170.50764670788968 66.10259545209763 H 0.0 **** 0.06
1308 H 113.89667368911154 169.04838753945367 66.61466950064953 H 0.0 **** 0.06
1309 H 115.48701144393596 168.89842494578383 65.82773139009201 H 0.0 **** 0.06
1310 H 114.07145705938399 169.42173234460324 64.88298132867226 H 0.0 **** 0.06
1311 C 17.254928918342557 95.12891133261775 111.40368928123038 C 0.0 **** -0.24
1312 H 17.535711370692752 94.08444113223084 111.26889353390885 H 0.0 **** 0.06
1313 H 17.64195693649708 95.48983309017103 112.35679970949877 H 0.0 **** 0.06
1314 H 16.16786843453059 95.21614296170671 111.39699175708787 H 0.0 **** 0.06
1315 H 17.67216516300573 95.72524497647925 110.59304400954207 H 0.0 **** 0.06
1316 C 23.66193468561059 22.343451893732635 24.820204508153267 C 0.0 **** -0.24
1317 H 24.724440916686802 22.455241134517905 25.0396820445728 H 0.0 **** 0.06
1318 H 23.3793265444271 21.295339872706847 24.923454365786256 H 0.0 **** 0.06
1319 H 23.465242949315893 22.674752257944704 23.800354459675248 H 0.0 **** 0.06
1320 H 23.08204793821642 22.947737943187917 25.5179891582913 H 0.0 **** 0.06
1321 C 68.15115372316956 17.739858153976186 64.73161033466084 C 0.0 **** -0.24
1322 H 68.07132298535561 16.703702630153472 65.05945855036862 H 0.0 **** 0.06
1323 H 68.55968387780774 18.346523132942764 65.54067672822532 H 0.0 **** 0.06
1324 H 67.16207643833752 18.112791471848098 64.46154812959298 H 0.0 **** 0.06
1325 H 68.80928082809106 17.79684197937972 63.86562523030034 H 0.0 **** 0.06
1326 C 66.02176092008546 10.682058679929554 34.193259286859245 C 0.0 **** -0.24
1327 H 65.61238063649125 11.634362786676661 34.52974605523019 H 0.0 **** 0.06
1328 H 65.25891318214246 10.135773476258294 33.637422518017814 H 0.0 **** 0.06
1329 H 66.33273491283188 10.095058487510784 35.05772943825653 H 0.0 **** 0.06
1330 H 66.8809418018559 10.864280328411269 33.54854373491747 H 0.0 **** 0.06
1331 C 142.604098821608 109.82371608754195 196.92263727424196 C 0.0 **** -0.24
1332 H 142.16125256963198 110.78894048867963 197.16583001509176 H 0.0 **** 0.06
1333 H 142.81189798890972 109.77945352400766 195.85336134059784 H 0.0 **** 0.06
1334 H 141.91157918776082 109.02748868556418 197.19175642569712 H 0.0 **** 0.06
1335 H 143.53345413762597 109.70013624118761 197.47891724636344 H 0.0 **** 0.06
1336 C 98.06811168900595 97.072963659902 192.26816415579123 C 0.0 **** -0.24
1337 H 97.72967769172055 97.58752227644246 193.16649789291492 H 0.0 **** 0.06
1338 H 97.98746006099688 97.74439807483088 191.4132356052785 H 0.0 **** 0.06
1339 H 97.44867378257973 96.19238869213407 192.09804923131358 H 0.0 **** 0.06
1340 H 99.10658250649146 96.76766283227133 192.39346551865594 H 0.0 **** 0.06
1341 C 7.3387017990185655 4.573025992883203 184.11726223062294 C 0.0 **** -0.24
1342 H 6.3122775111882845 4.37895156528927 183.8042414584133 H 0.0 **** 0.06
1343 H 7.661291004923612 3.793933331074925 184.8074053277792 H 0.0 **** 0.06
1344 H 7.3893789350413215 5.54344983691459 184.6130052238116 H 0.0 **** 0.06
1345 H 7.9904974920900145 4.577097799405749 183.2432224762086 H 0.0 **** 0.06
1346 C 131.71374230786773 173.29455013970372 161.4208962890706 C 0.0 **** -0.24
1347 H 131.01681989012354 172.5075132981224 161.13297297573402 H 0.0 **** 0.06
1348 H 131.50907624210473 174.19276293469602 160.83742625505587 H 0.0 **** 0.06
1349 H 132.73423789308913 172.9627157832352 161.2307663505985 H 0.0 **** 0.06
1350 H 131.5955355582125 173.51538405197823 162.48172767524454 H 0.0 **** 0.06
1351 C 21.815407543369787 125.90299961897585 65.519306148292 C 0.0 **** -0.24
1352 H 22.15101945077923 126.86962762980966 65.89432429278554 H 0.0 **** 0.06
1353 H 20.749812371636096 125.78513293352029 65.72270996879809 H 0.0 **** 0.06
1354 H 22.370319744884156 125.10771569649904 66.01637012815092 H 0.0 **** 0.06
1355 H 21.98804855643243 125.84978538851317 64.44398060353888 H 0.0 **** 0.06
1356 C 153.89023943059738 191.31862438371596 21.71153425169385 C 0.0 **** -0.24
1357 H 154.6576980990997 191.4435495319349 20.947613062444276 H 0.0 **** 0.06
1358 H 153.3326883634525 190.40215193598726 21.51854010439905 H 0.0 **** 0.06
1359 H 153.21009915877744 192.1697403232769 21.685332320684097 H 0.0 **** 0.06
1360 H 154.3611235626375 191.2593383433122 22.692531178865977 H 0.0 **** 0.06
1361 C 189.95409110342476 140.98286988418397 109.31650758150181 C 0.0 **** -0.24
1362 H 189.1376649213597 140.88085041234615 108.60221983926081 H 0.0 **** 0.06
1363 H 189.6720298051544 140.51461734335186 110.25948142130378 H 0.0 **** 0.06
1364 H 190.16166828667696 142.04066036713192 109.48256095097904 H 0.0 **** 0.06
1365 H 190.84544173389727 140.49564674332657 108.92092022965062 H 0.0 **** 0.06
1366 C 109.1658697888779 54.576340399573496 35.82276556917924 C 0.0 **** -0.24
1367 H 108.20345680041851 54.065519121214976 35.800549938934324 H 0.0 **** 0.06
1368 H 109.71857283542909 54.26936637324559 36.71123053362295 H 0.0 **** 0.06
1369 H 109.00514990295056 55.65334034783052 35.84927738947361 H 0.0 **** 0.06
1370 H 109.73571483178858 54.31559984684506 34.931820767997195 H 0.0 **** 0.06
1371 C 30.022645183462117 83.49065276349688 190.11528756841267 C 0.0 **** -0.24
1372 H 30.076860804630456 82.84369770710973 190.99064949134993 H 0.0 **** 0.06
1373 H 29.360957052541664 83.04280323183653 189.37341472803976 H 0.0 **** 0.06
1374 H 31.018267228105685 83.61028182135192 189.69040138147884 H 0.0 **** 0.06
1375 H 29.633201221937185 84.465901828282 190.40850652909867 H 0.0 **** 0.06
1376 C 115.12516192962204 63.166024140792786 182.94833336760985 C 0.0 **** -0.24
1377 H 115.67167872055973 62.22697165017891 183.03244334339442 H 0.0 **** 0.06
1378 H 115.21125410121661 63.54590654627097 181.9300017950245 H 0.0 **** 0.06
1379 H 115.54245861555 63.89343409837596 183.6445042574245 H 0.0 **** 0.06
1380 H 114.07455666376694 62.99651763209329 183.18543211191007 H 0.0 **** 0.06
1381 C 182.27500288851434 157.73570081504033 171.85763793226698 C 0.0 **** -0.24
1382 H 182.64266628126896 157.41083931270546 170.88492867985485 H 0.0 **** 0.06
1383 H 182.83546842584673 158.61254163665146 172.1837686789811 H 0.0 **** 0.06
1384 H 182.40629880445607 156.9315770013212 172.58181744112767 H 0.0 **** 0.06
1385 H 181.21714786716495 157.98730744210243 171.7815357477191 H 0.0 **** 0.06
1386 C 173.28136783616014 114.59550060283868 15.587262693465277 C 0.0 **** -0.24
1387 H 173.4747750951048 115.6294034903762 15.302668038690456 H 0.0 **** 0.06
1388 H 173.83032983634166 114.36040909632405 16.499247558183995 H 0.0 **** 0.06
1389 H 173.60631403599916 113.93155398472206 14.785944687308799 H 0.0 **** 0.06
1390 H 172.2140215422711 114.45985981485299 15.760560524678354 H 0.0 **** 0.06
1391 C 87.52655910378564 176.2596449186123 43.49028714544764 C 0.0 **** -0.24
1392 H 86.99268952128801 176.0066966479951 42.57418446197357 H 0.0 **** 0.06
1393 H 87.87339037063757 177.29189120035784 43.43563932933557 H 0.0 **** 0.06
1394 H 88.38108443977643 175.59346001945943 43.60880639186172 H 0.0 **** 0.06
1395 H 86.85696930480384 176.14601423131626 44.343075665051686 H 0.0 **** 0.06
1396 C 19.38575813697659 2.1344226359513883 182.15147828384855 C 0.0 **** -0.24
1397 H 19.999049233742852 1.3600169996230989 181.69130699806237 H 0.0 **** 0.06
1398 H 18.34208980965235 1.9828423310319607 181.87608671691618 H 0.0 **** 0.06
1399 H 19.71570770452186 3.113442448915393 181.80332145004513 H 0.0 **** 0.06
1400 H 19.486894046657483 2.0818980083671903 183.23568692710404 H 0.0 **** 0.06
1401 C 177.6852857779262 101.45719691108127 170.99970099014402 C 0.0 **** -0.24
1402 H 178.52498743737243 101.83169480008644 171.58654523852314 H 0.0 **** 0.06
1403 H 176.75030519289828 101.71470673026255 171.49906230123523 H 0.0 **** 0.06
1404 H 177.7625128629797 100.37463546297624 170.90557160147588 H 0.0 **** 0.06
1405 H 177.70557482606358 101.91066963967702 170.00831381124988 H 0.0 **** 0.06
1406 C 160.31734855657442 6.122583316634689 59.06265795816283 C 0.0 **** -0.24
1407 H 161.25059706291708 5.592758959125014 59.25239738089908 H 0.0 **** 0.06
1408 H 159.47591339352303 5.4732104447083145 59.30493760714009 H 0.0 **** 0.06
1409 H 160.26722850633936 6.404950311923578 58.01065103734449 H 0.0 **** 0.06
1410 H 160.27606030206695 7.019211192373845 59.68130601695468 H 0.0 **** 0.06
1411 C 158.44146284925793 96.61969641044632 136.07540688758755 C 0.0 **** -0.24
1412 H 157.473116726365 96.23281064988888 136.3938372432134 H 0.0 **** 0.06
1413 H 159.23198516782418 96.13669745707776 136.6499320492172 H 0.0 **** 0.06
1414 H 158.47486158166015 97.69673916366435 136.24305574503236 H 0.0 **** 0.06
1415 H 158.58381192273347 96.41333797177731 135.01457673120748 H 0.0 **** 0.06
1416 C 120.5341678885062 37.628441411768335 5.495271261766845 C 0.0 **** -0.24
1417 H 119.73055421160979 36.94012850236973 5.75470921759613 H 0.0 **** 0.06
1418 H 120.54231816261836 38.45972114863633 6.2001168122681705 H 0.0 **** 0.06
1419 H 120.37449311811747 38.0092381302573 4.485904363345632 H 0.0 **** 0.06
1420 H 121.48898415415141 37.10516368498776 5.539066089344665 H 0.0 **** 0.06
1421 C 187.931465120548 55.0944833627845 33.302712637641434 C 0.0 **** -0.24
1422 H 187.59237356822354 55.95353284547734 32.72358865025578 H 0.0 **** 0.06
1423 H 188.6123182470305 54.49486907769074 32.69791066302673 H 0.0 **** 0.06
1424 H 187.07184318157488 54.48964839295523 33.58988757579806 H 0.0 **** 0.06
1425 H 188.44715260942777 55.441195251710056 34.19786455095186 H 0.0 **** 0.06
1426 C 59.74256082535038 4.155661193214385 149.66752881429028 C 0.0 **** -0.24
1427 H 58.87868346665067 4.672067173848575 150.08578884138967 H 0.0 **** 0.06
1428 H 60.15963880378146 4.746595911416804 148.8504854509348 H 0.0 **** 0.06
1429 H 59.4360033782167 3.1803591087467424 149.29098129576317 H 0.0 **** 0.06
1430 H 60.49811227918042 4.024050521737138 150.44283542432026 H 0.0 **** 0.06
1431 C 78.97651493830352 66.30426119995258 45.35858760808054 C 0.0 **** -0.24
1432 H 78.55249651492636 66.33308976541696 46.36256419314884 H 0.0 **** 0.06
1433 H 79.93615001326566 65.78543489606164 45.38486553249953 H 0.0 **** 0.06
1434 H 79.12313157392805 67.32207328293566 44.99728191261249 H 0.0 **** 0.06
1435 H 78.29524845729736 65.77514402575645 44.69216230654314 H 0.0 **** 0.06
1436 C 62.96995079723908 147.12050898662483 10.953915413870135 C 0.0 **** -0.24
1437 H 63.190207842295564 146.13327956155626 11.36013651101291 H 0.0 **** 0.06
1438 H 61.90734950259636 147.3323899292676 11.072707827902832 H 0.0 **** 0.06
1439 H 63.23029442691072 147.14403245962137 9.89600874974721 H 0.0 **** 0.06
1440 H 63.55206847519247 147.8708267935125 11.488456215444359 H 0.0 **** 0.06
1441 C 156.50976817123882 134.27461982091504 118.4306706107885 C 0.0 **** -0.24
1442 H 157.52560714525563 134.6601210891696 118.5270794839663 H 0.0 **** 0.06
1443 H 156.52636178874099 133.3488376298165 117.85475074750045 H 0.0 **** 0.06
1444 H 155.8900063929873 135.01040817443058 117.91829329122814 H 0.0 **** 0.06
1445 H 156.09987344723478 134.07987153980542 119.42171203505131 H 0.0 **** 0.06
1446 C 71.42943498265026 111.4796967386551 115.5484835308097 C 0.0 **** -0.24
1447 H 71.54932419968424 111.99481812092455 114.59621456369712 H 0.0 **** 0.06
1448 H 72.29304831897241 111.68474384480953 116.18319246305589 H 0.0 **** 0.06
1449 H 71.35393643075452 110.40605567501694 115.37407443396535 H 0.0 **** 0.06
1450 H 70.52385149091947 111.83246133932676 116.04173331767731 H 0.0 **** 0.06
1451 C 54.903532379085775 46.230092687324984 99.71304545687542 C 0.0 **** -0.24
1452 H 54.77552236159593 47.08174931108738 100.38074381730277 H 0.0 **** 0.06
1453 H 54.64206206042674 45.31238244032768 100.2401781388318 H 0.0 **** 0.06
1454 H 55.94225212125589 46.17740283881447 99.38610085858531 H 0.0 **** 0.06
1455 H 54.25515968866462 46.34839557014986 98.8453929082464 H 0.0 **** 0.06
1456 C 96.49561269219927 121.40247036606905 75.66451834419003 C 0.0 **** -0.24
1457 H 97.5838221032972 121.46298821806701 75.67567840803257 H 0.0 **** 0.06
1458 H 96.18824520536725 120.45333739746354 75.22546194894761 H 0.0 **** 0.06
1459 H 96.09251454588579 122.22396992378529 75.07207168106862 H 0.0 **** 0.06
1460 H 96.11780373612103 121.47050409503873 76.68525215469833 H 0.0 **** 0.06
1461 C 191.9891105354673 161.04773425481144 31.550423850946544 C 0.0 **** -0.24
1462 H 192.54165179880687 161.71657849881638 32.210611870044545 H 0.0 **** 0.06
1463 H 192.0085390488215 160.03735234283775 31.958838598559794 H 0.0 **** 0.06
1464 H 192.4497358624356 161.05076098059234 30.562365230810826 H 0.0 **** 0.06
1465 H 190.95669854260476 161.38835276437578 31.470604092576764 H 0.0 **** 0.06
1466 C 174.87187348792688 192.72289348586884 115.11446097393181 C 0.0 **** -0.24
1467 H 173.8754286751239 192.28453820793962 115.05876475389024 H 0.0 **** 0.06
1468 H 174.8661692726293 193.54922932078617 115.82572692030601 H 0.0 **** 0.06
1469 H 175.16106838633814 193.09171713287932 114.12970814271691 H 0.0 **** 0.06
1470 H 175.58373542921174 191.9656095001953 115.44203876871941 H 0.0 **** 0.06
1471 C 108.93822602388491 87.6163827830789 51.144763728808016 C 0.0 **** -0.24
1472 H 108.12899599072898 87.981373084084 50.51214415927177 H 0.0 **** 0.06
1473 H 109.84845246446667 88.17507835881486 50.92903764519889 H 0.0 **** 0.06
1474 H 109.10542988457212 86.55746378323653 50.94644551540381 H 0.0 **** 0.06
1475 H 108.66792400640816 87.75138850028247 52.192664957823126 H 0.0 **** 0.06
1476 C 174.62557053254525 60.528809876340944 192.34982824585222 C 0.0 **** -0.24
1477 H 174.27702186777674 59.64926777062681 192.89064446531668 H 0.0 **** 0.06
1478 H 175.47295297322935 60.96764792265833 192.87711456547473 H 0.0 **** 0.06
1479 H 173.8184765755106 61.25972183114891 192.2859003479051 H 0.0 **** 0.06
1480 H 174.93326022578034 60.239152977881105 191.34448271224613 H 0.0 **** 0.06
1481 C 0.1035105669558618 74.08770278405673 28.95450041375119 C 0.0 **** -0.24
1482 H 0.5356793601939671 73.0934496892001 28.840033796159275 H 0.0 **** 0.06
1483 H 0.8697659996340121 74.77796799150647 29.305658799920394 H 0.0 **** 0.06
1484 H -0.7111879566297716 74.04922121420697 29.678211119474668 H 0.0 **** 0.06
1485 H -0.28066189413510756 74.42910749487737 27.993281382734438 H 0.0 **** 0.06
1486 C 142.55809405421292 66.27977017177437 76.32771789534829 C 0.0 **** -0.24
1487 H 143.34918070214349 66.55746534503231 75.62962761805454 H 0.0 **** 0.06
1488 H 142.7608942905773 65.28747256914414 76.7297144111881 H 0.0 **** 0.06
1489 H 141.60079797506705 66.27283595284354 75.80682653519558 H 0.0 **** 0.06
1490 H 142.52404374248306 67.00264548744667 77.14276546121097 H 0.0 **** 0.06
1491 C 1.1146699166003486 193.26870924029367 176.32467082121863 C 0.0 **** -0.24
1492 H 0.412564195580444 193.42678875314988 175.50668238386504 H 0.0 **** 0.06
1493 H 1.8273074349800709 192.49224063269025 176.04556158965084 H 0.0 **** 0.06
1494 H 0.5698099047992287 192.9601272181726 177.2167988294232 H 0.0 **** 0.06
1495 H 1.64925259953543 194.19618198817133 176.52834292448034 H 0.0 **** 0.06
1496 C 72.38232467945853 135.51418683094795 117.11752263318601 C 0.0 **** -0.24
1497 H 71.65089154790903 136.31880773355215 117.03806526781452 H 0.0 **** 0.06
1498 H 72.52375651403386 135.2548103427771 118.16760624696747 H 0.0 **** 0.06
1499 H 73.33053223379343 135.8422719162324 116.6930214342481 H 0.0 **** 0.06
1500 H 72.02227018562226 134.64124160994146 116.57295850699921 H 0.0 **** 0.06
1501 C 10.941266115463065 144.26156253322557 140.67466251756343 C 0.0 **** -0.24
1502 H 10.228647294042617 144.63697959396356 141.40914950251454 H 0.0 **** 0.06
1503 H 10.48075370377245 144.26646856841475 139.68620363910134 H 0.0 **** 0.06
1504 H 11.230372117189034 143.24359462089114 140.9365818542268 H 0.0 **** 0.06
1505 H 11.825225164320187 144.90058285415114 140.6670370222738 H 0.0 **** 0.06
1506 C 196.79409255056572 87.46414866448049 102.06742642854715 C 0.0 **** -0.24
1507 H 195.75572967914667 87.74772801002044 102.23738810480037 H 0.0 **** 0.06
1508 H 196.8391137110692 86.4225637097473 101.7505533578649 H 0.0 **** 0.06
1509 H 197.3606021944048 87.58793212944346 102.99078506724985 H 0.0 **** 0.06
1510 H 197.22088289964788 88.10003005161616 101.2914743988132 H 0.0 **** 0.06
1511 C 198.33875487849173 16.04962430021979 183.7001517912188 C 0.0 **** -0.24
1512 H 197.34253891268366 15.963699767573786 183.26660663813936 H 0.0 **** 0.06
1513 H 198.38139259572847 15.478002813588489 184.6276595266939 H 0.0 **** 0.06
1514 H 198.55567155954563 17.09761547405816 183.907273345626 H 0.0 **** 0.06
1515 H 199.07526932607198 15.658021718668124 182.99778750468397 H 0.0 **** 0.06
1516 C 14.698848275498761 96.10277312383573 121.87505855844549 C 0.0 **** -0.24
1517 H 14.061678728682814 95.22010969894347 121.91661456038813 H 0.0 **** 0.06
1518 H 14.152613998217618 96.92321317050312 121.40853208660195 H 0.0 **** 0.06
1519 H 15.590294561637933 95.87978082991827 121.28849428588501 H 0.0 **** 0.06
1520 H 14.990937527015717 96.38806925913434 122.88560527315641 H 0.0 **** 0.06
1521 C 2.087694543484396 101.10067872448025 109.85916757040238 C 0.0 **** -0.24
1522 H 1.6842213097190708 100.09066413480753 109.92083223448643 H 0.0 **** 0.06
1523 H 2.0677132613983744 101.43696774574673 108.8220315391487 H 0.0 **** 0.06
1524 H 3.1149645559449013 101.10469069781303 110.22256114731937 H 0.0 **** 0.06
1525 H 1.4831156118906748 101.7714784294792 110.47075794349496 H 0.0 **** 0.06
1526 C 5.158041842609947 126.48914055525333 140.29485173576705 C 0.0 **** -0.24
1527 H 5.738365521706186 126.93611049773912 141.10201837268642 H 0.0 **** 0.06
1528 H 4.860241342844603 125.4785249393556 140.57788117860585 H 0.0 **** 0.06
1529 H 5.764598301098317 126.44933938122895 139.38960158781674 H 0.0 **** 0.06
1530 H 4.268093228241213 127.09170000070054 140.11058214758503 H 0.0 **** 0.06
1531 C 90.6617533516204 135.42956496098932 174.6781293220582 C 0.0 **** -0.24
1532 H 89.66394684166463 135.81053713925021 174.89142257186563 H 0.0 **** 0.06
1533 H 91.40305994342509 136.17921651781998 174.95421219852503 H 0.0 **** 0.06
1534 H 90.74768163064923 135.20826364961812 173.6149164016163 H 0.0 **** 0.06
1535 H 90.8335140772947 134.5195875470613 175.25374295867317 H 0.0 **** 0.06
1536 C 152.65396505321667 178.46575682001443 152.71695428881318 C 0.0 **** -0.24
1537 H 153.176452883002 178.67186515706828 151.78280199730634 H 0.0 **** 0.06
1538 H 151.59086740719385 178.6692438017023 152.59051808305088 H 0.0 **** 0.06
1539 H 153.05544663146932 179.10265471674214 153.50551709912693 H 0.0 **** 0.06
1540 H 152.79474315551738 177.41927888740074 152.9874707301765 H 0.0 **** 0.06
1541 C 70.76060447586735 152.44320997682263 51.659995504169274 C 0.0 **** -0.24
1542 H 71.83503755167689 152.3014972573888 51.77772297938071 H 0.0 **** 0.06
1543 H 70.57596895703175 153.32620138144236 51.04691914690159 H 0.0 **** 0.06
1544 H 70.3023907988594 152.57975715069762 52.639204758551784 H 0.0 **** 0.06
1545 H 70.32991764239095 151.56716202340195 51.17594953659332 H 0.0 **** 0.06
1546 C 194.24838474095208 24.631160195833814 151.33965077755417 C 0.0 **** -0.24
1547 H 193.73210021149603 23.699931296686813 151.10887235470474 H 0.0 **** 0.06
1548 H 195.11627272053957 24.737245871294064 150.6886123979562 H 0.0 **** 0.06
1549 H 194.57469031880336 24.617688594256194 152.37974013694048 H 0.0 **** 0.06
1550 H 193.5715422936732 25.471144186216762 151.18278814989148 H 0.0 **** 0.06
1551 C 58.64726462335119 123.31806253583301 53.32964964369371 C 0.0 **** -0.24
1552 H 58.78803725161174 122.26119010546614 53.10343423190085 H 0.0 **** 0.06
1553 H 57.80318868512046 123.70290205048659 52.75722843200229 H 0.0 **** 0.06
1554 H 59.549752728417616 123.86887869460352 53.06195673582417 H 0.0 **** 0.06
1555 H 58.45118446604914 123.43830493795008 54.39533722908038 H 0.0 **** 0.06
1556 C 41.90983221725787 182.01465473882763 66.84654406691988 C 0.0 **** -0.24
1557 H 41.1881310566672 182.82763262341848 66.77420422395257 H 0.0 **** 0.06
1558 H 41.52453101829724 181.24658489435072 67.51830475041669 H 0.0 **** 0.06
1559 H 42.85131105791146 182.39931125223853 67.23692927701339 H 0.0 **** 0.06
1560 H 42.07412213014027 181.58501209891463 65.8586014075062 H 0.0 **** 0.06
1561 C 7.626608163540681 136.43326275802485 129.54123349038133 C 0.0 **** -0.24
1562 H 8.653226934597399 136.16920040985377 129.7975646924677 H 0.0 **** 0.06
1563 H 7.024900239172069 135.52695122254522 129.47407953497466 H 0.0 **** 0.06
1564 H 7.614173658107148 136.95094908573742 128.58217513545895 H 0.0 **** 0.06
1565 H 7.216468419761327 137.0861540539688 130.3118209497752 H 0.0 **** 0.06
1566 C 105.09839207059579 79.7353941045202 83.38072893157246 C 0.0 **** -0.24
1567 H 105.65959104654672 80.6261903894478 83.09880098492263 H 0.0 **** 0.06
1568 H 104.11676729344728 79.76005149099154 82.90671573617757 H 0.0 **** 0.06
1569 H 104.97786021372906 79.71013108256659 84.46373610276547 H 0.0 **** 0.06
1570 H 105.6383617348967 78.84777329158675 83.0543109622655 H 0.0 **** 0.06
1571 C 175.61034628818643 90.0486345127631 177.63890097481718 C 0.0 **** -0.24
1572 H 175.69665245340042 89.29582904265624 178.42114825576513 H 0.0 **** 0.06
1573 H 175.87620020426118 89.60650132012086 176.6781681083876 H 0.0 **** 0.06
1574 H 176.2829826285215 90.87778649890072 177.85579264248884 H 0.0 **** 0.06
1575 H 174.5837421866788 90.41465362021324 177.59811193985925 H 0.0 **** 0.06
1576 C 156.69984912616667 137.83888325614353 151.6634003262371 C 0.0 **** -0.24
1577 H 156.8469806388204 138.84313141715867 151.2676231120078 H 0.0 **** 0.06
1578 H 157.64912007549287 137.30278545920467 151.6570356549038 H 0.0 **** 0.06
1579 H 155.9772153400343 137.30613500177733 151.04458984701202 H 0.0 **** 0.06
1580 H 156.32486285748848 137.9032533037063 152.6850350389008 H 0.0 **** 0.06
1581 C 61.768905870298454 59.39137981935882 159.21253264884444 C 0.0 **** -0.24
1582 H 61.10291998924765 58.79914925306181 159.8394380860894 H 0.0 **** 0.06
1583 H 61.203256579269976 59.82368571300174 158.38739983084406 H 0.0 **** 0.06
1584 H 62.55867458880766 58.75170294566705 158.81648898085805 H 0.0 **** 0.06
1585 H 62.2124355923786 60.189185350255286 159.80689311834004 H 0.0 **** 0.06
1586 C 194.25222627783393 8.78989653705537 129.30823443725475 C 0.0 **** -0.24
1587 H 194.7869994748028 9.734553034506348 129.41458501705685 H 0.0 **** 0.06
1588 H 193.20482365479452 8.990017590200182 129.08213933732395 H 0.0 **** 0.06
1589 H 194.32439077205686 8.225211355374881 130.23710880302224 H 0.0 **** 0.06
1590 H 194.69505377970341 8.212641518704288 128.49639015638581 H 0.0 **** 0.06
1591 C 43.65219423044606 28.81432764297648 69.78681757426483 C 0.0 **** -0.24
1592 H 44.305404535527416 29.54522655200202 69.31046186875153 H 0.0 **** 0.06
1593 H 42.871584765857804 29.333255011567246 70.34294159650898 H 0.0 **** 0.06
1594 H 44.235344352867756 28.196250324906487 70.46896787371227 H 0.0 **** 0.06
1595 H 43.19679382214025 28.182315368929096 69.02355440605214 H 0.0 **** 0.06
1596 C 90.75385939331207 152.32593552931093 37.48001923060535 C 0.0 **** -0.24
1597 H 90.20622541870907 153.16227013217468 37.91373703122565 H 0.0 **** 0.06
1598 H 90.98133159966525 152.5420288662354 36.43572867408322 H 0.0 **** 0.06
1599 H 90.1441756431197 151.42347618383016 37.54000733248418 H 0.0 **** 0.06
1600 H 91.68232279798005 152.17427223224354 38.031070630977055 H 0.0 **** 0.06
1601 C 12.05666127861764 118.96388984853215 122.15962978629784 C 0.0 **** -0.24
1602 H 11.446998021918006 119.27648002755558 121.31169772417317 H 0.0 **** 0.06
1603 H 11.547680237351301 118.16433887976675 122.69745802980515 H 0.0 **** 0.06
1604 H 12.21160145459038 119.81103338738257 122.82718205475032 H 0.0 **** 0.06
1605 H 13.021312239678736 118.60428267217074 121.7999967675135 H 0.0 **** 0.06
1606 C 4.060009297502091 57.29017737573582 186.4892705075282 C 0.0 **** -0.24
1607 H 5.146322566977403 57.21577480180247 186.44978127135695 H 0.0 **** 0.06
1608 H 3.774016466269842 58.022867970395055 187.24516422783424 H 0.0 **** 0.06
1609 H 3.6384775150462474 56.318738546692174 186.74689859727778 H 0.0 **** 0.06
1610 H 3.681833780976632 57.60449124497586 185.51674506204037 H 0.0 **** 0.06
1611 C 88.4472984531107 154.50808782658285 52.10724951465619 C 0.0 **** -0.24
1612 H 89.38570137407717 154.91030345285114 52.48750890752973 H 0.0 **** 0.06
1613 H 88.57543453810769 153.45200382907507 51.86937681576234 H 0.0 **** 0.06
1614 H 88.15817960723535 155.05210616517886 51.20733949122777 H 0.0 **** 0.06
1615 H 87.67067399874597 154.61938143127537 52.86424085069251 H 0.0 **** 0.06
1616 C 52.98334863431904 190.12131150254478 74.51176459122861 C 0.0 **** -0.24
1617 H 52.744475112957616 191.0543424211666 74.00068784234385 H 0.0 **** 0.06
1618 H 53.73126771895687 189.5747095265205 73.93743193232523 H 0.0 **** 0.06
1619 H 52.081472279289926 189.5161072164977 74.60353873873441 H 0.0 **** 0.06
1620 H 53.375837247874415 190.3419063900835 75.5046433729218 H 0.0 **** 0.06
1621 C 46.02891186324612 6.85291785149326 59.01394170477067 C 0.0 **** -0.24
1622 H 46.19479818569582 5.824921909652687 58.69254982127916 H 0.0 **** 0.06
1623 H 44.95827854020389 7.045336396466205 59.0806505156263 H 0.0 **** 0.06
1624 H 46.476787765777345 7.5356707249175585 58.291278303720844 H 0.0 **** 0.06
1625 H 46.487742461364206 7.005755710769229 59.99088784340921 H 0.0 **** 0.06
1626 C 88.26569059458566 109.10367280198852 109.87788924913286 C 0.0 **** -0.24
1627 H 89.26851104824212 109.06276971127616 109.45386715545243 H 0.0 **** 0.06
1628 H 88.27141390442799 108.6473398874326 110.86732453192363 H 0.0 **** 0.06
1629 H 87.57637955213698 108.56061159296459 109.2310272075415 H 0.0 **** 0.06
1630 H 87.94726489469335 110.14308112155362 109.9580896434187 H 0.0 **** 0.06
1631 C 67.60374522368055 116.92533727668092 70.44520137400826 C 0.0 **** -0.24
1632 H 67.08552475507531 116.93910271114885 69.48569693476907 H 0.0 **** 0.06
1633 H 67.03157484898792 117.49759551604222 71.1748377445638 H 0.0 **** 0.06
1634 H 68.59338711319097 117.3665030950267 70.32957993085552 H 0.0 **** 0.06
1635 H 67.70352862253227 115.89470349228054 70.78819990903796 H 0.0 **** 0.06
1636 C 27.726058619535763 56.83840514443244 91.55217912910928 C 0.0 **** -0.24
1637 H 27.628878240010977 57.50838242524935 90.69898861153985 H 0.0 **** 0.06
1638 H 28.70813489382823 56.96918180241141 92.00687171127731 H 0.0 **** 0.06
1639 H 27.61280529314277 55.80721963410326 91.21888977839853 H 0.0 **** 0.06
1640 H 26.952513158973943 57.07066768963654 92.28539004835227 H 0.0 **** 0.06
1641 C 94.66502187831523 87.6438073010635 186.3971220127673 C 0.0 **** -0.24
1642 H 94.03561248010823 87.38275306081164 185.54557623933215 H 0.0 **** 0.06
1643 H 95.58272445945255 87.055775399959 186.3640893214579 H 0.0 **** 0.06
1644 H 94.1299506263797 87.43172306995012 187.32258714411853 H 0.0 **** 0.06
1645 H 94.9115876050187 88.70502681484851 186.3545170444618 H 0.0 **** 0.06
1646 C 159.06271824260548 136.95823541320678 62.329771762708845 C 0.0 **** -0.24
1647 H 158.17316087603916 137.57236111537233 62.46269637768107 H 0.0 **** 0.06
1648 H 159.108547710986 136.20913210478457 63.120753806061884 H 0.0 **** 0.06
1649 H 159.95084452157826 137.58916019237705 62.37478658646049 H 0.0 **** 0.06
1650 H 159.01882120787184 136.46130997759712 61.35996050680325 H 0.0 **** 0.06
1651 C 40.64159760483888 170.8894753647587 93.83128107388293 C 0.0 **** -0.24
1652 H 39.95492090527293 171.62455069044512 93.410009089613 H 0.0 **** 0.06
1653 H 40.92002630133889 171.18973099748453 94.84166056092639 H 0.0 **** 0.06
1654 H 41.5363821241491 170.8309892421172 93.21023376841814 H 0.0 **** 0.06
1655 H 40.15592767410921 169.91474482584607 93.86127691852641 H 0.0 **** 0.06
1656 C 33.28035474495783 143.53774130533955 42.807067188324254 C 0.0 **** -0.24
1657 H 32.74421611591447 144.20021399431366 42.12627571829381 H 0.0 **** 0.06
1658 H 34.351398359548256 143.61326645157524 42.61811952434718 H 0.0 **** 0.06
1659 H 32.954585091168894 142.51051688362145 42.64587852544909 H 0.0 **** 0.06
1660 H 33.071513787395816 143.8281465277673 43.836117681479436 H 0.0 **** 0.06
1661 C 101.19668057719974 87.50590412332656 157.40379855657454 C 0.0 **** -0.24
1662 H 101.36683550865303 87.64862994416569 158.47105734776673 H 0.0 **** 0.06
1663 H 100.12532219364186 87.47584025529318 157.20767859296518 H 0.0 **** 0.06
1664 H 101.6513700433444 86.56760278296815 157.08652933317921 H 0.0 **** 0.06
1665 H 101.64563070844417 88.33160806751681 156.8516785875329 H 0.0 **** 0.06
1666 C 188.79210735231527 171.04917031131077 71.91900392061127 C 0.0 **** -0.24
1667 H 189.57901146922478 171.49145938888984 72.53092956206677 H 0.0 **** 0.06
1668 H 187.950622157918 171.73938649678772 71.85566375945359 H 0.0 **** 0.06
1669 H 188.46271204437573 170.11352876014627 72.37193804630711 H 0.0 **** 0.06
1670 H 189.17775472193347 170.85259692015381 70.91894158390946 H 0.0 **** 0.06
1671 C 150.14991918352936 5.368343228040395 125.1906396030507 C 0.0 **** -0.24
1672 H 150.22979251943352 4.347681291226323 125.56622470246262 H 0.0 **** 0.06
1673 H 149.17894306013358 5.7814985605868685 125.4645734100219 H 0.0 **** 0.06
1674 H 150.25074586077778 5.365184963096617 124.10567523864864 H 0.0 **** 0.06
1675 H 150.94075886477793 5.978388281262816 125.6276010692201 H 0.0 **** 0.06
1676 C 170.89378384400823 44.075722523290494 151.38193979692926 C 0.0 **** -0.24
1677 H 170.55346771367292 43.240141177624366 151.9945599522892 H 0.0 **** 0.06
1678 H 170.15202351969123 44.286667908678766 150.61104851603713 H 0.0 **** 0.06
1679 H 171.84292502462992 43.81845296075852 150.91227495491677 H 0.0 **** 0.06
1680 H 171.02623669963162 44.9559699858975 152.00974095462755 H 0.0 **** 0.06
1681 C 177.2616340521599 42.596287134384056 106.26497970220689 C 0.0 **** -0.24
1682 H 176.737597948837 42.35443168937685 105.34000683719023 H 0.0 **** 0.06
1683 H 177.22553719752355 43.67348856787443 106.4311657324439 H 0.0 **** 0.06
1684 H 178.30012682905428 42.274382124318564 106.18952380593473 H 0.0 **** 0.06
1685 H 176.78086428797735 42.084014228458514 107.09831251925667 H 0.0 **** 0.06
1686 C 33.16816248899238 88.4202902514854 55.512592334385346 C 0.0 **** -0.24
1687 H 32.783513072767846 89.02226269498726 56.33634940019971 H 0.0 **** 0.06
1688 H 32.463814938086614 87.61885958007818 55.28887801611626 H 0.0 **** 0.06
1689 H 34.12995073145356 87.99129447773731 55.7954698812793 H 0.0 **** 0.06
1690 H 33.29510831603841 89.04911706187292 54.63207870323512 H 0.0 **** 0.06
1691 C 156.69898188539474 169.41072963683195 4.157588394831635 C 0.0 **** -0.24
1692 H 157.36285668886373 169.08378275735598 4.957544427246781 H 0.0 **** 0.06
1693 H 156.38689802372926 170.4382111876586 4.342893533165473 H 0.0 **** 0.06
1694 H 155.82207598588357 168.763731649639 4.125380612659711 H 0.0 **** 0.06
1695 H 157.22493237935458 169.35630483320978 3.2038186500427273 H 0.0 **** 0.06
1696 C 128.96315439133366 29.258073169890153 118.13518662941698 C 0.0 **** -0.24
1697 H 128.4622429341659 30.11781701097354 118.58136814491797 H 0.0 **** 0.06
1698 H 128.44318341976012 28.34506113477177 118.42417777333412 H 0.0 **** 0.06
1699 H 129.9947694660534 29.21659010683271 118.48477092063627 H 0.0 **** 0.06
1700 H 128.95107747433718 29.35432218823965 117.04903333485754 H 0.0 **** 0.06
1701 C 105.41684301317042 167.9111961387756 170.17126104684866 C 0.0 **** -0.24
1702 H 106.27182616712327 168.2017422966992 169.5620546899706 H 0.0 **** 0.06
1703 H 104.63835741135176 167.49549457177525 169.53087048198552 H 0.0 **** 0.06
1704 H 105.02969736536252 168.78580692106271 170.69490685204156 H 0.0 **** 0.06
1705 H 105.72790126451781 167.1613765876153 170.89885509114777 H 0.0 **** 0.06
1706 C 8.53722099650065 21.909193249420582 130.89880508810353 C 0.0 **** -0.24
1707 H 9.372254640994981 21.865633328616553 130.19875076656166 H 0.0 **** 0.06
1708 H 7.940653548720917 22.798576597448772 130.69738957471995 H 0.0 **** 0.06
1709 H 8.91966562077738 21.95109027026635 131.91800693416326 H 0.0 **** 0.06
1710 H 7.9175825055230575 21.020784221012207 130.7793680427944 H 0.0 **** 0.06
1711 C 94.41252567100975 124.58043188024217 188.98173604632305 C 0.0 **** -0.24
1712 H 94.60234125151965 123.81720355764821 188.22653059600367 H 0.0 **** 0.06
1713 H 94.48423897802252 124.13427056487836 189.97406310036797 H 0.0 **** 0.06
1714 H 93.41257971945103 124.99156363380746 188.8395056692202 H 0.0 **** 0.06
1715 H 95.1505324874868 125.37649975049305 188.8870336134587 H 0.0 **** 0.06
1716 C 95.86999522326093 55.861980969469016 83.25345874613345 C 0.0 **** -0.24
1717 H 96.61455828559662 56.35989216599825 83.87472034339191 H 0.0 **** 0.06
1718 H 95.36202374917448 55.09462134804738 83.8387406474236 H 0.0 **** 0.06
1719 H 96.36219775862978 55.40015699297814 82.39771932582715 H 0.0 **** 0.06
1720 H 95.14120109964276 56.59325337085225 82.90265466789094 H 0.0 **** 0.06
1721 C 25.962043660825245 172.49134465725854 58.52813072256333 C 0.0 **** -0.24
1722 H 26.571139798162278 171.68361426242717 58.12043448713598 H 0.0 **** 0.06
1723 H 26.609589829455544 173.22977014697523 59.00266467712379 H 0.0 **** 0.06
1724 H 25.269468223161013 172.08701818577288 59.26613684941174 H 0.0 **** 0.06
1725 H 25.400804852215714 172.96405231033413 57.72290086133563 H 0.0 **** 0.06
1726 C 116.22106564306071 186.0699555874627 90.00821199074736 C 0.0 **** -0.24
1727 H 116.4482602900008 187.1328115549682 89.92085362210133 H 0.0 **** 0.06
1728 H 115.80229630799383 185.71073461968427 89.06746906581725 H 0.0 **** 0.06
1729 H 115.49877967703844 185.9180662303762 90.80989289667957 H 0.0 **** 0.06
1730 H 117.13496897321414 185.5209806369155 90.23232549193955 H 0.0 **** 0.06
1731 C 178.04598798274247 74.43502648164792 36.71726331209149 C 0.0 **** -0.24
1732 H 178.14957859148262 73.35619338095096 36.6030538584387 H 0.0 **** 0.06
1733 H 179.02081313638067 74.90797852816374 36.59110863578711 H 0.0 **** 0.06
1734 H 177.6593216460298 74.65889565993675 37.71162110650545 H 0.0 **** 0.06
1735 H 177.35698447649156 74.81515737483811 35.96422990283122 H 0.0 **** 0.06
1736 C 30.837261458220027 55.273594185392426 51.29230111344991 C 0.0 **** -0.24
1737 H 31.14679797458939 55.085651160767696 52.31998162251665 H 0.0 **** 0.06
1738 H 30.005849422447255 55.978947878136836 51.28647939532286 H 0.0 **** 0.06
1739 H 30.521635372404887 54.33696088226952 50.832147961280086 H 0.0 **** 0.06
1740 H 31.673264011377086 55.69124275531462 50.731120136592025 H 0.0 **** 0.06
1741 C 54.70486603800255 89.57324944118989 98.99129570144879 C 0.0 **** -0.24
1742 H 54.062078309202874 90.33620765996017 98.5536824635177 H 0.0 **** 0.06
1743 H 54.816690114809774 88.74589110629597 98.28963177119226 H 0.0 **** 0.06
1744 H 54.25793105149572 89.20875000809906 99.91584962010273 H 0.0 **** 0.06
1745 H 55.68354605706776 90.00274850483822 99.20584560603214 H 0.0 **** 0.06
1746 C 93.820528418599 66.88094249517349 70.16829655243494 C 0.0 **** -0.24
1747 H 92.86456709465497 67.38114467943751 70.31790727581374 H 0.0 **** 0.06
1748 H 94.16089028337794 67.0462782966298 69.14560178987048 H 0.0 **** 0.06
1749 H 93.70208115477928 65.81155130707262 70.34416134323442 H 0.0 **** 0.06
1750 H 94.55592685131597 67.28449654872213 70.86522695136277 H 0.0 **** 0.06
1751 C 169.30986461894682 142.45206021469784 54.943263847116896 C 0.0 **** -0.24
1752 H 169.86381798899436 141.68199610311493 55.479682153580825 H 0.0 **** 0.06
1753 H 169.6836765578886 142.52339826558702 53.92150887923833 H 0.0 **** 0.06
1754 H 169.44199421671237 143.4108898815961 55.445910990847096 H 0.0 **** 0.06
1755 H 168.25093766911272 142.1932386885169 54.92714475754883 H 0.0 **** 0.06
1756 C 13.56922986902697 186.4605916511524 179.91594465575312 C 0.0 **** -0.24
1757 H 12.578676895051956 186.7157675324533 180.29304115074848 H 0.0 **** 0.06
1758 H 13.476161870902843 186.0052412546409 178.9296191199968 H 0.0 **** 0.06
1759 H 14.047655197395216 185.75742334982138 180.5978143144233 H 0.0 **** 0.06
1760 H 14.172860391364793 187.3651796393388 179.8432986464243 H 0.0 **** 0.06
1761 C 192.50977004923575 15.413682255327558 5.049093125816739 C 0.0 **** -0.24
1762 H 192.4954498348763 16.244475253027076 5.753445718545549 H 0.0 **** 0.06
1763 H 192.31489263091987 15.785453423681304 4.043294106875351 H 0.0 **** 0.06
1764 H 191.74232355779543 14.690858779213414 5.324583182026004 H 0.0 **** 0.06
1765 H 193.4879364875527 14.932325247693115 5.07531441970383 H 0.0 **** 0.06
1766 C 195.25238816870777 132.1189361808391 74.70131260304387 C 0.0 **** -0.24
1767 H 195.8804183160176 131.4087829167937 75.23926999795256 H 0.0 **** 0.06
1768 H 195.05618584619012 131.74296861430753 73.69699107650167 H 0.0 **** 0.06
1769 H 195.76463187717582 133.07914909384078 74.63696793196898 H 0.0 **** 0.06
1770 H 194.30929675033343 132.24527768283758 75.23294413138426 H 0.0 **** 0.06
1771 C 28.176842460928725 69.80679629373162 32.2077043987522 C 0.0 **** -0.24
1772 H 28.21544985949862 70.62980525773986 31.493018153690258 H 0.0 **** 0.06
1773 H 28.367638507085985 68.86708322036651 31.68875555221328 H 0.0 **** 0.06
1774 H 27.19070381368209 69.77352219286524 32.670748762129676 H 0.0 **** 0.06
1775 H 28.93405620715012 69.95832539432564 32.976460497671525 H 0.0 **** 0.06
1776 C 190.5025498414817 65.90739502728192 143.39040553729012 C 0.0 **** -0.24
1777 H 191.46689360768238 65.75828381233211 142.90515547911792 H 0.0 **** 0.06
1778 H 190.5461710710223 65.52538826506552 144.41080091386343 H 0.0 **** 0.06
1779 H 189.73058254524358 65.37491266719995 142.83558602191562 H 0.0 **** 0.06
1780 H 190.26701031732648 66.97183845017798 143.41111864002139 H 0.0 **** 0.06
1781 C 40.75706815083666 126.96757987956221 150.40161692053053 C 0.0 **** -0.24
1782 H 41.19604916551944 127.079212017195 149.41019692050887 H 0.0 **** 0.06
1783 H 40.09756399393433 127.813068057956 150.6044758643048 H 0.0 **** 0.06
1784 H 41.54998064840623 126.93863336180755 151.1486259841651 H 0.0 **** 0.06
1785 H 40.18410922198572 126.04153258461923 150.44277689566445 H 0.0 **** 0.06
1786 C 105.4895589578073 184.15514754931365 187.82998822259535 C 0.0 **** -0.24
1787 H 104.61806375765516 183.55606374448453 188.09751286391725 H 0.0 **** 0.06
1788 H 105.82689608698962 183.8790997766675 186.8313526770266 H 0.0 **** 0.06
1789 H 106.28910706594198 183.97175078279787 188.5477717077983 H 0.0 **** 0.06
1790 H 105.22205728411947 185.21171276067952 187.84523589185486 H 0.0 **** 0.06
1791 C 50.28741672555566 125.76776847790873 29.22597530702997 C 0.0 **** -0.24
1792 H 49.72270753745484 124.89482654427064 28.896474736763068 H 0.0 **** 0.06
1793 H 50.39285656733948 125.74283751344524 30.31083224738262 H 0.0 **** 0.06
1794 H 49.75772732946473 126.67346619788643 28.931816420360292 H 0.0 **** 0.06
1795 H 51.274380240163 125.7569342992704 28.76379642637761 H 0.0 **** 0.06
1796 C 36.468541812833564 155.77471406646015 185.92462038252495 C 0.0 **** -0.24
1797 H 35.393216006808615 155.6069061003113 185.8696061392527 H 0.0 **** 0.06
1798 H 36.66333222590666 156.72094683974308 186.4296351557818 H 0.0 **** 0.06
1799 H 36.8822083856426 155.8086752411787 184.9159587338968 H 0.0 **** 0.06
1800 H 36.935350746260326 154.96314339387004 186.48145618726267 H 0.0 **** 0.06
1801 C 70.57944004216601 76.80177347590393 74.63625809108007 C 0.0 **** -0.24
1802 H 70.43940426273412 75.72498825043431 74.72789993446153 H 0.0 **** 0.06
1803 H 69.81653333794979 77.21146842241961 73.97306420661441 H 0.0 **** 0.06
1804 H 71.56679248671792 77.00537619005877 74.2226426270204 H 0.0 **** 0.06
1805 H 70.49433306925587 77.26497745055701 75.61931992317837 H 0.0 **** 0.06
1806 C 161.44431918914972 29.974413586855746 76.20299278001994 C 0.0 **** -0.24
1807 H 162.08729308441391 30.67528207490409 76.73479970054727 H 0.0 **** 0.06
1808 H 161.3225928623416 30.305732893542995 75.17077238532625 H 0.0 **** 0.06
1809 H 160.46928555782836 29.934117289872404 76.68870289038493 H 0.0 **** 0.06
1810 H 161.89837255108537 28.984337279064846 76.2160732555595 H 0.0 **** 0.06
1811 C 136.46674317534675 140.34349150208809 24.29842921664209 C 0.0 **** -0.24
1812 H 136.3633337937985 139.8461314913326 25.263579585079796 H 0.0 **** 0.06
1813 H 135.54014923485764 140.8666082563685 24.059610795579644 H 0.0 **** 0.06
1814 H 136.67481799764244 139.60113004334605 23.52766788966882 H 0.0 **** 0.06
1815 H 137.28713624141204 141.05922572080425 24.34528447212689 H 0.0 **** 0.06
1816 C 164.3447866150559 110.21972448536783 19.877499276168862 C 0.0 **** -0.24
1817 H 165.32171630407362 110.68122772203685 20.016904439901197 H 0.0 **** 0.06
1818 H 164.46939476105695 109.23710916453928 19.421692695406193 H 0.0 **** 0.06
1819 H 163.7351149427759 110.84749540832499 19.227871077593477 H 0.0 **** 0.06
1820 H 163.85296073231524 110.11195545128803 20.844404041584596 H 0.0 **** 0.06
1821 C 44.63688747147533 2.1839757777525506 31.72066944399532 C 0.0 **** -0.24
1822 H 44.5834432870942 3.1996575784847536 32.113682037853664 H 0.0 **** 0.06
1823 H 44.592375849498595 1.4724848270158049 32.54540881568039 H 0.0 **** 0.06
1824 H 45.573984602745625 2.0546018551947967 31.178324482696667 H 0.0 **** 0.06
1825 H 43.79951456734106 2.0117485767742025 31.045670141828225 H 0.0 **** 0.06
1826 C 190.66044594618916 152.90191031698595 198.72206598303075 C 0.0 **** -0.24
1827 H 191.34495941003698 152.07553491337032 198.9178968520128 H 0.0 **** 0.06
1828 H 189.8225101969074 152.54497652138133 198.12404708057124 H 0.0 **** 0.06
1829 H 191.186905784463 153.68734864853164 198.1797078439502 H 0.0 **** 0.06
1830 H 190.2907472618769 153.29874332527643 199.66794448718713 H 0.0 **** 0.06
1831 C 130.59190864528898 140.86256129477698 131.5645885776404 C 0.0 **** -0.24
1832 H 130.35545099482488 139.85245590147065 131.89567694573066 H 0.0 **** 0.06
1833 H 129.79439678288156 141.22792687417666 130.91587480904735 H 0.0 **** 0.06
1834 H 131.53204805461786 140.85392272400338 131.01392813038785 H 0.0 **** 0.06
1835 H 130.68447502022957 141.51721965549606 132.43047341604301 H 0.0 **** 0.06
1836 C 145.0918048208278 46.00771469220501 51.181483274562396 C 0.0 **** -0.24
1837 H 145.44928766150457 46.987647649576004 50.86675628384019 H 0.0 **** 0.06
1838 H 144.01357468101327 45.948330064002434 51.030367649851655 H 0.0 **** 0.06
1839 H 145.31993984479448 45.859839713611095 52.23770773677968 H 0.0 **** 0.06
1840 H 145.58514410947635 45.23476942166961 50.59173192960613 H 0.0 **** 0.06
1841 C 4.133311034603764 94.8762711652019 134.2023619885689 C 0.0 **** -0.24
1842 H 3.347229328600349 94.3012670373985 134.69198683558773 H 0.0 **** 0.06
1843 H 4.990249702639005 94.23115945361812 134.0104279766946 H 0.0 **** 0.06
1844 H 4.4361271295559845 95.70156662112583 134.84781108321192 H 0.0 **** 0.06
1845 H 3.757579075211879 95.27354856901633 133.25837105369675 H 0.0 **** 0.06
1846 C 54.100189534042386 105.94910778004953 122.62085202481038 C 0.0 **** -0.24
1847 H 53.20344416160157 105.56440887691812 122.13417123336987 H 0.0 **** 0.06
1848 H 54.51523160536112 106.76120704122866 122.02411544463479 H 0.0 **** 0.06
1849 H 54.83609083307471 105.14973412192825 122.70972678268325 H 0.0 **** 0.06
1850 H 53.843991322687316 106.31936041864108 123.61314992707082 H 0.0 **** 0.06
1851 C 2.864319148916138 56.54120012855475 124.65676245652821 C 0.0 **** -0.24
1852 H 3.3717176270489517 56.05239355500832 123.82443221965201 H 0.0 **** 0.06
1853 H 2.5699710424780733 57.5473037628839 124.36099005408991 H 0.0 **** 0.06
1854 H 3.538304293225792 56.59472860506787 125.51147550787013 H 0.0 **** 0.06
1855 H 1.9777783585637394 55.967481815349686 124.92860694519896 H 0.0 **** 0.06
1856 C 106.81165267329243 93.89311357885865 100.00709999669311 C 0.0 **** -0.24
1857 H 105.84675066295208 93.65646693174159 100.45516154445119 H 0.0 **** 0.06
1858 H 107.42303162769699 92.99179106344934 99.96378512193485 H 0.0 **** 0.06
1859 H 107.3178654763366 94.647258583878 100.61064669470909 H 0.0 **** 0.06
1860 H 106.65892222960147 94.27835107313092 98.9988360571167 H 0.0 **** 0.06
1861 C 168.93717421449284 195.8653636644239 43.0894198956088 C 0.0 **** -0.24
1862 H 168.37851331923244 195.77483822216388 42.1575283546712 H 0.0 **** 0.06
1863 H 169.45803149096287 194.93006404396874 43.29245679509866 H 0.0 **** 0.06
1864 H 168.24882431385294 196.08327528415816 43.90534121511118 H 0.0 **** 0.06
1865 H 169.66296437102545 196.67414733454046 42.999334792749096 H 0.0 **** 0.06
1866 C 22.080615274364675 114.65272585836951 50.637499301051875 C 0.0 **** -0.24
1867 H 21.814614023931426 113.61638840473876 50.427745365977444 H 0.0 **** 0.06
1868 H 22.82198322968688 114.68324110923601 51.43529440854745 H 0.0 **** 0.06
1869 H 21.190311906959153 115.19985813895383 50.94561589995121 H 0.0 **** 0.06
1870 H 22.494273859905917 115.10919045963078 49.73811432760891 H 0.0 **** 0.06
1871 C 163.05328503490122 61.56681234493783 27.143177618837015 C 0.0 **** -0.24
1872 H 163.8490656515967 62.29657392157219 26.995204900682936 H 0.0 **** 0.06
1873 H 162.54773430394653 61.3832466747707 26.195157690925072 H 0.0 **** 0.06
1874 H 162.3379562232663 61.95224470113976 27.869598480927934 H 0.0 **** 0.06
1875 H 163.4803556335824 60.634570111574874 27.514066853421525 H 0.0 **** 0.06
1876 C 157.142353715799 40.55329831801275 167.00504223623705 C 0.0 **** -0.24
1877 H 156.64683057492897 41.21464842503387 166.2945835632766 H 0.0 **** 0.06
1878 H 156.50677099208042 39.688875392430134 167.20127506708928 H 0.0 **** 0.06
1879 H 157.32372806010443 41.09007965434206 167.935543606337 H 0.0 **** 0.06
1880 H 158.09241705638493 40.21836920810259 166.5875834437109 H 0.0 **** 0.06
1881 C 189.461390559738 131.46376383153157 116.02537098084281 C 0.0 **** -0.24
1882 H 189.95641793604977 130.74922888444016 116.68282241104188 H 0.0 **** 0.06
1883 H 189.48351741137537 131.09005056945207 115.00175753870877 H 0.0 **** 0.06
1884 H 189.9782993927036 132.42158836388367 116.07481876742676 H 0.0 **** 0.06
1885 H 188.4264016154429 131.59375551599413 116.3440742337585 H 0.0 **** 0.06
1886 C 64.04467245457832 37.18986692509256 111.6826192815198 C 0.0 **** -0.24
1887 H 63.491479604250344 37.31675660194645 112.61364633836814 H 0.0 **** 0.06
1888 H 64.19865980522569 38.16312220343866 111.21627525818383 H 0.0 **** 0.06
1889 H 63.47744184376438 36.548018048374274 111.00854277555712 H 0.0 **** 0.06
1890 H 65.01047586598695 36.731132591388416 111.89411221397455 H 0.0 **** 0.06
1891 C 85.16782138325922 186.58827562012607 116.43984869508657 C 0.0 **** -0.24
1892 H 85.6726016121716 187.23040035232583 117.16116652831136 H 0.0 **** 0.06
1893 H 85.08769990780948 187.10903393832368 115.48471412645506 H 0.0 **** 0.06
1894 H 84.17104846235426 186.34404909507 116.80561338287055 H 0.0 **** 0.06
1895 H 85.74170628123144 185.67085336430543 116.30674263138403 H 0.0 **** 0.06
1896 C 39.06629086711678 130.7545573488145 133.73472507792584 C 0.0 **** -0.24
1897 H 39.93389378646259 131.41068158676495 133.79562512707156 H 0.0 **** 0.06
1898 H 39.22364729310215 130.01565720066503 132.94876247284392 H 0.0 **** 0.06
1899 H 38.18016444705643 131.3457022301733 133.50401665838004 H 0.0 **** 0.06
1900 H 38.92637440853014 130.24657213008754 134.68833299554367 H 0.0 **** 0.06
1901 C 122.00749338488907 29.187548640297734 128.25952132966523 C 0.0 **** -0.24
1902 H 122.92768389666844 28.60387438012083 128.2422455022802 H 0.0 **** 0.06
1903 H 121.58324992727611 29.16674138130577 129.26372262663483 H 0.0 **** 0.06
1904 H 121.29389872723158 28.76220886098912 127.55399286482472 H 0.0 **** 0.06
1905 H 122.22613912685074 30.218291109088852 127.97851828948791 H 0.0 **** 0.06
1906 C 39.88657140314314 92.20860138254557 5.0161127227123075 C 0.0 **** -0.24
1907 H 39.6399053979715 91.14809014764211 4.96115369687211 H 0.0 **** 0.06
1908 H 40.88894954070986 92.36881678105203 4.6185202346374155 H 0.0 **** 0.06
1909 H 39.851608684440166 92.53607878021921 6.056164110558754 H 0.0 **** 0.06
1910 H 39.166850793630175 92.78079897083245 4.430498641659234 H 0.0 **** 0.06
1911 C 164.1304159951307 26.537075404823852 179.647288042493 C 0.0 **** -0.24
1912 H 163.30177190967382 26.948884944783742 179.06998691196992 H 0.0 **** 0.06
1913 H 165.03787392170858 26.55746240828293 179.04378231411476 H 0.0 **** 0.06
1914 H 163.90236417507435 25.508860645452472 179.9270565992972 H 0.0 **** 0.06
1915 H 164.27821796149223 27.1342661440424 180.54672534903122 H 0.0 **** 0.06
1916 C 96.20813195091989 150.59435500668638 7.181197675331141 C 0.0 **** -0.24
1917 H 96.31303230597942 150.74820269501026 6.107382756891639 H 0.0 **** 0.06
1918 H 95.15299940472104 150.64624041383684 7.453803516338539 H 0.0 **** 0.06
1919 H 96.76026755742217 151.36832141491413 7.71548596838587 H 0.0 **** 0.06
1920 H 96.6055235598302 149.61514564931298 7.448631087661063 H 0.0 **** 0.06
1921 C 83.94918402793519 191.1634157230221 180.5726886582214 C 0.0 **** -0.24
1922 H 83.60611911949889 191.99305996161928 179.95449241934986 H 0.0 **** 0.06
1923 H 83.16615118304907 190.40708973026602 180.63328779047876 H 0.0 **** 0.06
1924 H 84.18239077046502 191.528022722852 181.5733249777386 H 0.0 **** 0.06
1925 H 84.84337953427598 190.7257785843728 180.12785629340254 H 0.0 **** 0.06
1926 C 107.61862287495424 168.0033965729874 27.695771606638402 C 0.0 **** -0.24
1927 H 106.91753346946408 167.34099246309256 28.205236189341917 H 0.0 **** 0.06
1928 H 108.49825757089076 168.14973045155523 28.322007874834327 H 0.0 **** 0.06
1929 H 107.13894616919177 168.96472168197073 27.510310056534053 H 0.0 **** 0.06
1930 H 107.91677088486153 167.55654953274487 26.74789126280581 H 0.0 **** 0.06
1931 C 116.04740639678982 166.73048865197728 81.35471061278042 C 0.0 **** -0.24
1932 H 115.63267352969751 167.13072264821335 80.42985977757246 H 0.0 **** 0.06
1933 H 117.11487285981565 166.94865212898742 81.39823932524155 H 0.0 **** 0.06
1934 H 115.89545983996845 165.65166430502626 81.38449229994734 H 0.0 **** 0.06
1935 H 115.54661935767786 167.19091552568216 82.20625104836029 H 0.0 **** 0.06
1936 C 129.85472401321653 188.14018721020494 120.96772999129203 C 0.0 **** -0.24
1937 H 130.5660788922283 188.94244365704878 121.16245158785318 H 0.0 **** 0.06
1938 H 128.9729317191365 188.27693525793165 121.59482889443666 H 0.0 **** 0.06
1939 H 130.3175662163726 187.18032106348562 121.1958565943093 H 0.0 **** 0.06
1940 H 129.56099344661732 188.16248768490016 119.91819784336823 H 0.0 **** 0.06
1941 C 96.78220806312413 88.97564115881465 159.02264064348168 C 0.0 **** -0.24
1942 H 96.52908738243883 88.04344914903743 159.52704390148682 H 0.0 **** 0.06
1943 H 96.60988064768452 89.81358199922835 159.69842840709646 H 0.0 **** 0.06
1944 H 96.15846854720041 89.08905157978876 158.1354682847118 H 0.0 **** 0.06
1945 H 97.83172886859725 88.95601958724399 158.7274597247541 H 0.0 **** 0.06
1946 C 41.090697953564444 125.57546899413279 82.23417324796645 C 0.0 **** -0.24
1947 H 41.039842621401064 124.48998118609873 82.14450355626084 H 0.0 **** 0.06
1948 H 42.08579796409384 125.91709090222875 81.94710853409327 H 0.0 **** 0.06
1949 H 40.89132621877276 125.86316276560703 83.26651277088038 H 0.0 **** 0.06
1950 H 40.34690370806072 126.02899617924623 81.58025363439253 H 0.0 **** 0.06
1951 C 135.54971451468248 106.9781702791131 132.92212218178577 C 0.0 **** -0.24
1952 H 136.4928382401307 106.46962522739966 132.72222658336446 H 0.0 **** 0.06
1953 H 134.85252414902305 106.78408675100582 132.10648140290988 H 0.0 **** 0.06
1954 H 135.7242477290386 108.050098964813 133.00445499799488 H 0.0 **** 0.06
1955 H 135.12790063118206 106.60625985438486 133.8559349945104 H 0.0 **** 0.06
1956 C 181.00138766383876 22.744704423842165 173.39432967831056 C 0.0 **** -0.24
1957 H 181.90518004712118 22.547205718398487 173.97120165974349 H 0.0 **** 0.06
1958 H 181.1455897245292 22.410830458912827 172.36724224117606 H 0.0 **** 0.06
1959 H 180.79264554820554 23.815173099764948 173.40317596349115 H 0.0 **** 0.06
1960 H 180.1626465607047 22.207837385208393 173.83736333920712 H 0.0 **** 0.06
1961 C 40.24256126581821 18.245059065767833 137.76495079213493 C 0.0 **** -0.24
1962 H 39.59933464082489 17.941706260203375 138.59125054158366 H 0.0 **** 0.06
1963 H 40.05342439652172 17.60388489473928 136.90298463997536 H 0.0 **** 0.06
1964 H 41.28628303937293 18.152171766458594 138.0649466066761 H 0.0 **** 0.06
1965 H 40.03046779350099 19.28159902191703 137.50145510650597 H 0.0 **** 0.06
1966 C 194.04975019842206 11.300507927435717 52.632957588234135 C 0.0 **** -0.24
1967 H 193.82892996728177 11.179301631696319 53.69365931407661 H 0.0 **** 0.06
1968 H 194.01910202866952 12.358473954438665 52.37349806188999 H 0.0 **** 0.06
1969 H 193.30884129968635 10.759391527965931 52.04380332607404 H 0.0 **** 0.06
1970 H 195.042681256674 10.90294276384057 52.42086903373027 H 0.0 **** 0.06
1971 C 0.07543490545015175 195.6148519319754 65.19308422294944 C 0.0 **** -0.24
1972 H -0.11988485008006933 195.70711602716807 66.26142321886516 H 0.0 **** 0.06
1973 H 1.114603600560855 195.32601319111996 65.03808012483614 H 0.0 **** 0.06
1974 H -0.113956972141807 196.57144150628764 64.70577036930092 H 0.0 **** 0.06
1975 H -0.5813130717363038 194.8547385329166 64.76899765693815 H 0.0 **** 0.06
1976 C 40.90222686614493 141.47133721591513 19.903587987488606 C 0.0 **** -0.24
1977 H 41.21390151094086 140.4286155919215 19.95796810409564 H 0.0 **** 0.06
1978 H 40.59481337937437 141.8112603872806 20.892674876126236 H 0.0 **** 0.06
1979 H 40.064247789037424 141.5639820286193 19.21120317219703 H 0.0 **** 0.06
1980 H 41.733854990690645 142.08092851163 19.550684616402222 H 0.0 **** 0.06
1981 C 183.5647754025604 176.1117594533932 174.2063274472265 C 0.0 **** -0.24
1982 H 183.31015175415126 177.12579300044678 174.51336071831614 H 0.0 **** 0.06
1983 H 183.34683130921005 175.42020500313313 175.02159460998416 H 0.0 **** 0.06
1984 H 184.6248965053013 176.06178468895203 173.96108181905768 H 0.0 **** 0.06
1985 H 182.97538512677153 175.83883827440437 173.33047766891528 H 0.0 **** 0.06
1986 C 60.49370007176225 100.65060336085116 43.17143090798032 C 0.0 **** -0.24
1987 H 61.34589038357677 101.32814168783733 43.21888781545648 H 0.0 **** 0.06
1988 H 60.84556203559134 99.62001447095602 43.22142478392843 H 0.0 **** 0.06
1989 H 59.95868131674217 100.80646556600252 42.23385711402072 H 0.0 **** 0.06
1990 H 59.82443548093249 100.84852394124036 44.00883167137174 H 0.0 **** 0.06
1991 C 138.2442103911191 84.79208409491798 137.67978605612305 C 0.0 **** -0.24
1992 H 139.1834835962166 85.11516180235867 137.23194087806272 H 0.0 **** 0.06
1993 H 138.32776131797718 83.74840605161353 137.98610306433238 H 0.0 **** 0.06
1994 H 137.4403840291431 84.8937509199045 136.95067308935063 H 0.0 **** 0.06
1995 H 138.02581177898338 85.40987719223745 138.55101072511783 H 0.0 **** 0.06
1996 C 171.74112788168767 190.05608140266426 10.125727672253504 C 0.0 **** -0.24
1997 H 171.25170903968547 189.64124351873153 11.00664900788476 H 0.0 **** 0.06
1998 H 171.03741592758752 190.06987202567845 9.293079487417941 H 0.0 **** 0.06
1999 H 172.60189412133738 189.44025049185296 9.864221530796897 H 0.0 **** 0.06
2000 H 172.07214768614145 191.07188220545635 10.33878464279303 H 0.0 **** 0.06
2001 C 48.299600991679085 85.5999503155802 38.94238498451131 C 0.0 **** -0.24
2002 H 48.18329327940857 84.75345967125222 38.26627495801063 H 0.0 **** 0.06
2003 H 49.35559135133427 85.73383215781371 39.17858767446006 H 0.0 **** 0.06
2004 H 47.74264909926258 85.4112521150495 39.86065361667602 H 0.0 **** 0.06
2005 H 47.91720845020002 86.50189482969265 38.46471594055538 H 0.0 **** 0.06
2006 C 181.79220975516895 177.97659546713484 44.526894869683744 C 0.0 **** -0.24
2007 H 181.04966182954644 177.63423977949907 45.24858862209018 H 0.0 **** 0.06
2008 H 182.79271667361184 177.79281332674873 44.92005735605714 H 0.0 **** 0.06
2009 H 181.66156632950626 179.04404754709583 44.35099995564504 H 0.0 **** 0.06
2010 H 181.6644508821604 177.43489192330784 43.5900904037309 H 0.0 **** 0.06
2011 C 92.7599312917443 67.97258763959888 167.55231188759606 C 0.0 **** -0.24
2012 H 93.79442669282292 67.63568543496507 167.49258054231615 H 0.0 **** 0.06
2013 H 92.64634739777898 68.6470366073952 168.40128301817333 H 0.0 **** 0.06
2014 H 92.10470284436536 67.11066754109044 167.68096305376005 H 0.0 **** 0.06
2015 H 92.49519264032438 68.49584655076023 166.63349022859643 H 0.0 **** 0.06
2016 C 169.3887951263441 95.67248134039284 51.80367256787508 C 0.0 **** -0.24
2017 H 170.22675030778305 95.61460495151684 51.10986272818138 H 0.0 **** 0.06
2018 H 168.5387249497277 95.1263252190436 51.39416325282201 H 0.0 **** 0.06
2019 H 169.11252299550955 96.71606067600484 51.95267777314797 H 0.0 **** 0.06
2020 H 169.67738057806602 95.23303952840894 52.75896102271821 H 0.0 **** 0.06
2021 C 10.10671628046532 58.07866250912059 134.642106518525 C 0.0 **** -0.24
2022 H 10.875708074102477 57.73739120496606 135.33618881352174 H 0.0 **** 0.06
2023 H 10.110972513806274 59.16725843884802 134.60255355868185 H 0.0 **** 0.06
2024 H 9.131234572115034 57.73039012265116 134.98169666194258 H 0.0 **** 0.06
2025 H 10.310878345922958 57.67681757559211 133.64920460871383 H 0.0 **** 0.06
2026 C 53.082454407049795 195.9101756254194 92.93971331062241 C 0.0 **** -0.24
2027 H 54.0207572303366 195.4460778504672 93.24375401908517 H 0.0 **** 0.06
2028 H 52.71940884588699 195.43289531314446 92.02907335826487 H 0.0 **** 0.06
2029 H 53.24617181794683 196.97192989017185 92.7541057051246 H 0.0 **** 0.06
2030 H 52.34471213447928 195.78953059519102 93.73310716136456 H 0.0 **** 0.06
2031 C 15.359190657491467 171.9890344903643 108.01562421608057 C 0.0 **** -0.24
2032 H 15.82286271760944 172.96534872766455 108.15850676831937 H 0.0 **** 0.06
2033 H 16.134481355106004 171.22260988643419 107.97148360720843 H 0.0 **** 0.06
2034 H 14.793537504542144 171.98843936542335 107.08374018652299 H 0.0 **** 0.06
2035 H 14.688834660343844 171.77982964794484 108.84824827090927 H 0.0 **** 0.06
2036 C 195.15656742557306 50.83840213232921 138.5357515454792 C 0.0 **** -0.24
2037 H 194.47388671897158 50.753105735197835 139.38177535190687 H 0.0 **** 0.06
2038 H 195.81023625475197 49.96584719514129 138.50790098052912 H 0.0 **** 0.06
2039 H 195.7591041111416 51.740338437471934 138.6453377489676 H 0.0 **** 0.06
2040 H 194.5841245120946 50.894115724465166 137.61018049187396 H 0.0 **** 0.06
2041 C 81.30958754135082 41.73574557020768 123.73527691793126 C 0.0 **** -0.24
2042 H 80.98229551667961 40.923084098159904 123.08692366513296 H 0.0 **** 0.06
2043 H 81.194519315842 41.437628919692145 124.77787582002355 H 0.0 **** 0.06
2044 H 80.70482412181642 42.62158534321213 123.54134707398788 H 0.0 **** 0.06
2045 H 82.35737303570633 41.959937467392194 123.53489169634128 H 0.0 **** 0.06
2046 C 84.57047567398155 146.1539423577074 37.48289721215107 C 0.0 **** -0.24
2047 H 85.04622461058318 145.55970843902566 38.262769427200396 H 0.0 **** 0.06
2048 H 84.62851838488513 147.2114874897669 37.74449244358286 H 0.0 **** 0.06
2049 H 83.52518012531993 145.85966275902985 37.388412199767416 H 0.0 **** 0.06
2050 H 85.08254119092112 145.9854107118155 36.534717004228426 H 0.0 **** 0.06
2051 C 146.8852744156964 117.3233277336696 149.04070132861173 C 0.0 **** -0.24
2052 H 147.51547604946504 116.49336140510269 148.72216645964102 H 0.0 **** 0.06
2053 H 147.32558132909142 118.26358974756454 148.70863378672362 H 0.0 **** 0.06
2054 H 146.80567998605824 117.3225579030184 150.12761200019523 H 0.0 **** 0.06
2055 H 145.8920206993546 117.21310852057215 148.60460675265594 H 0.0 **** 0.06
2056 C 125.86628498479041 195.35830368479884 74.14506966412395 C 0.0 **** -0.24
2057 H 125.52298901035113 195.89124042342573 73.25867191058049 H 0.0 **** 0.06
2058 H 125.09512995611874 195.39746782616254 74.9136252886254 H 0.0 **** 0.06
2059 H 126.7780498831637 195.8250481676228 74.51936508924688 H 0.0 **** 0.06
2060 H 126.07039079246215 194.31829967414382 73.88733492867881 H 0.0 **** 0.06
2061 C 113.24880554896922 9.745823678522868 139.98915472247631 C 0.0 **** -0.24
2062 H 113.9894824798694 9.638572318130542 140.78142456631508 H 0.0 **** 0.06
2063 H 112.2489843701552 9.62561572735197 140.40784598002045 H 0.0 **** 0.06
2064 H 113.41786787470059 8.983205236834266 139.22776010507326 H 0.0 **** 0.06
2065 H 113.33868434031729 10.733882894619683 139.53864783767648 H 0.0 **** 0.06
2066 C 139.56117592608464 171.26597975683404 180.022198256146 C 0.0 **** -0.24
2067 H 139.44762732089433 171.78916274152002 180.971896087346 H 0.0 **** 0.06
2068 H 138.60035907277825 170.85271151210355 179.7182657366183 H 0.0 **** 0.06
2069 H 140.28517690376611 170.45961644905006 180.13624854100271 H 0.0 **** 0.06
2070 H 139.91260850344528 171.96534216085038 179.2629900677224 H 0.0 **** 0.06
2071 C 30.78159548842757 112.98605236297828 148.95628081088577 C 0.0 **** -0.24
2072 H 29.801161723406892 113.4622079781081 148.94227558319 H 0.0 **** 0.06
2073 H 31.104740442311538 112.79026398658459 147.93363378344316 H 0.0 **** 0.06
2074 H 30.720911119371237 112.0460592990338 149.505688811734 H 0.0 **** 0.06
2075 H 31.499440116984346 113.64544816697787 149.4444897342057 H 0.0 **** 0.06
2076 C 55.404038116299034 90.58068505344826 44.90114549892934 C 0.0 **** -0.24
2077 H 55.20259322545371 90.37224526949095 45.952009667101834 H 0.0 **** 0.06
2078 H 54.71500880578344 91.34629255812123 44.54425833984709 H 0.0 **** 0.06
2079 H 55.26909669675712 89.66963322964924 44.31815744594303 H 0.0 **** 0.06
2080 H 56.42905082123667 90.93438315924811 44.7914993410115 H 0.0 **** 0.06
2081 C 44.149034733808676 74.55902825322879 15.620242613065471 C 0.0 **** -0.24
2082 H 44.802894256176245 73.69464494202734 15.739468935781929 H 0.0 **** 0.06
2083 H 43.672591685703 74.52270964292026 14.6409374274088 H 0.0 **** 0.06
2084 H 44.73726737641462 75.47288823952326 15.705083472540906 H 0.0 **** 0.06
2085 H 43.385361090166384 74.54514971753812 16.397842531722475 H 0.0 **** 0.06
2086 C 116.34746257462652 131.59395836999394 171.74809542801873 C 0.0 **** -0.24
2087 H 117.01741498238249 132.22774849013166 172.3285069390971 H 0.0 **** 0.06
2088 H 116.61231218828235 131.65416907806014 170.6926594864479 H 0.0 **** 0.06
2089 H 115.31928807365585 131.9312988158898 171.88433907648107 H 0.0 **** 0.06
2090 H 116.43878171151519 130.56206349113506 172.08809170803332 H 0.0 **** 0.06
2091 C 35.525368443259424 59.409447239275536 37.99979536786198 C 0.0 **** -0.24
2092 H 36.1731166280274 59.961938807167655 38.68047226611239 H 0.0 **** 0.06
2093 H 35.9313917893312 58.409558201275814 37.84458051701765 H 0.0 **** 0.06
2094 H 35.47239715154342 59.933163561924204 37.04478229973245 H 0.0 **** 0.06
2095 H 34.52623341305855 59.33491741493064 38.42950944396665 H 0.0 **** 0.06
2096 C 66.53938843475322 33.303781924219834 87.25323570502633 C 0.0 **** -0.24
2097 H 65.5122452819067 33.10388225377994 87.55808278734645 H 0.0 **** 0.06
2098 H 67.19933856799332 33.20797233980841 88.11562020998338 H 0.0 **** 0.06
2099 H 66.60905291331946 34.314318006865506 86.85216795231588 H 0.0 **** 0.06
2100 H 66.83589470356713 32.58698982227958 86.48676729680744 H 0.0 **** 0.06
2101 C 2.006841335041031 10.295110555538734 156.8473984605634 C 0.0 **** -0.24
2102 H 1.1992598117936382 9.722562470761957 157.3028811083775 H 0.0 **** 0.06
2103 H 2.8872137383821155 10.254701963640734 157.48896861554357 H 0.0 **** 0.06
2104 H 1.692594393145498 11.3324727387524 156.72550392474312 H 0.0 **** 0.06
2105 H 2.246968479327677 9.871179344929068 155.87233540305817 H 0.0 **** 0.06
2106 C 171.13875501347735 139.94822772952708 78.17870676877914 C 0.0 **** -0.24
2107 H 170.81467445293595 140.9876975035222 78.21170721436702 H 0.0 **** 0.06
2108 H 171.9720058585333 139.8482980210641 77.48295051067092 H 0.0 **** 0.06
2109 H 170.31172639454888 139.32026097998218 77.84622650817498 H 0.0 **** 0.06
2110 H 171.455429494346 139.6340672103693 79.17299149281533 H 0.0 **** 0.06
2111 C 168.38150460815612 161.48007990403804 137.8465744908978 C 0.0 **** -0.24
2112 H 168.43797745440213 160.3926864516654 137.89706192513543 H 0.0 **** 0.06
2113 H 168.4876177645712 161.89520749472496 138.84931861833104 H 0.0 **** 0.06
2114 H 167.41848374814145 161.77482391438474 137.43046457830295 H 0.0 **** 0.06
2115 H 169.1829606865986 161.85553278903873 137.2110888915499 H 0.0 **** 0.06
2116 C 83.43833247784102 35.689966619498776 179.72205499153392 C 0.0 **** -0.24
2117 H 83.05715542049211 34.672547007858924 179.63347694075065 H 0.0 **** 0.06
2118 H 84.51269864863667 35.65964813470005 179.90645083270724 H 0.0 **** 0.06
2119 H 82.94162848511269 36.19298514723256 180.55102794739392 H 0.0 **** 0.06
2120 H 83.24371114490441 36.232630848182666 178.79781383188885 H 0.0 **** 0.06
2121 C 128.81445257930233 44.85021662199772 94.86523848298981 C 0.0 **** -0.24
2122 H 128.35248801296746 45.170644878921095 95.79971918407517 H 0.0 **** 0.06
2123 H 128.79267320806994 45.67192856200616 94.14939644088793 H 0.0 **** 0.06
2124 H 128.26436402847622 44.00047342768379 94.4614888538132 H 0.0 **** 0.06
2125 H 129.84744726479022 44.55865767414174 95.0531055273944 H 0.0 **** 0.06
2126 C 0.030036047409353728 83.70721041635053 15.958463246325366 C 0.0 **** -0.24
2127 H 0.7234376907833351 83.81945871921693 15.124968098059952 H 0.0 **** 0.06
2128 H -0.8059890068576365 83.07716569009776 15.653442834182599 H 0.0 **** 0.06
2129 H -0.3433325531643092 84.68696502138621 16.25611821512149 H 0.0 **** 0.06
2130 H 0.5458051575636986 83.24378530687471 16.800217427668073 H 0.0 **** 0.06
2131 C 42.13268934900833 137.30691635818982 132.9879601950566 C 0.0 **** -0.24
2132 H 42.529678309420575 136.2919484051528 133.01400840471763 H 0.0 **** 0.06
2133 H 41.479491662180294 137.46326214153672 133.84643294357633 H 0.0 **** 0.06
2134 H 41.566135226019185 137.45184059581356 132.06815148018813 H 0.0 **** 0.06
2135 H 42.95685583938658 138.0204482280564 133.02329547644823 H 0.0 **** 0.06
2136 C 65.75804287144477 194.6860656240985 184.8471859548259 C 0.0 **** -0.24
2137 H 65.03636030898673 195.02812406051365 184.1047568285614 H 0.0 **** 0.06
2138 H 65.70206460953646 195.32413258332906 185.72963691159293 H 0.0 **** 0.06
2139 H 66.76220457757657 194.73267226049953 184.42611379295718 H 0.0 **** 0.06
2140 H 65.52959214330441 193.65732839342076 185.12781503745504 H 0.0 **** 0.06
2141 C 197.7711937726017 99.06528814563211 66.97309492062197 C 0.0 **** -0.24
2142 H 197.12945955676696 99.2198976252215 67.84112591731154 H 0.0 **** 0.06
2143 H 197.4181305581755 99.68286857333601 66.14706558073456 H 0.0 **** 0.06
2144 H 197.73993551251033 98.01549314508156 66.68075766830202 H 0.0 **** 0.06
2145 H 198.79453318892342 99.34278330743223 67.22421150487118 H 0.0 **** 0.06
2146 C 111.0189683298305 120.50285484527203 109.68152982889978 C 0.0 **** -0.24
2147 H 110.78412101513766 121.5281659219427 109.39504837137571 H 0.0 **** 0.06
2148 H 111.9616014611521 120.48481427645822 110.22798933054952 H 0.0 **** 0.06
2149 H 111.1056147687932 119.8871760028295 108.78661160596107 H 0.0 **** 0.06
2150 H 110.22324020067538 120.11163168723951 110.31538144036722 H 0.0 **** 0.06
2151 C 188.04477867591783 78.25796721754078 5.617238998994971 C 0.0 **** -0.24
2152 H 187.9029742959686 78.5338805862198 6.662284461473419 H 0.0 **** 0.06
2153 H 188.9888496964861 77.72359533786697 5.50786213001583 H 0.0 **** 0.06
2154 H 188.06318884233764 79.15874808431568 5.003847137429418 H 0.0 **** 0.06
2155 H 187.22336542707887 77.61694784270944 5.297362281031148 H 0.0 **** 0.06
2156 C 140.59679932594997 179.84122796497502 24.605699067244416 C 0.0 **** -0.24
2157 H 140.330001376556 180.8928612483786 24.706306994565367 H 0.0 **** 0.06
2158 H 139.74459373428513 179.22172263382674 24.885589157363057 H 0.0 **** 0.06
2159 H 141.43941444646006 179.61708601583493 25.258764759266526 H 0.0 **** 0.06
2160 H 140.87318774649853 179.63324196185982 23.572135357782827 H 0.0 **** 0.06
2161 C 59.63172961763486 17.65455679100154 168.1218963210295 C 0.0 **** -0.24
2162 H 59.282937517285305 18.686897163438573 168.1457312791738 H 0.0 **** 0.06
2163 H 59.71587777292591 17.3239174141234 167.08619250525345 H 0.0 **** 0.06
2164 H 58.921110904809865 17.01949460322362 168.64946594939488 H 0.0 **** 0.06
2165 H 60.6068271350354 17.589142233963628 168.60408035091035 H 0.0 **** 0.06
2166 C 156.0582210957516 92.21509459033646 172.3291750074266 C 0.0 **** -0.24
2167 H 156.80122955099358 92.92301659970974 171.96323986936827 H 0.0 **** 0.06
2168 H 155.30430930018238 92.74657506029828 172.9097955324931 H 0.0 **** 0.06
2169 H 156.54517451529588 91.47110562206083 172.9606063113365 H 0.0 **** 0.06
2170 H 155.58234833811386 91.7173110426209 171.48365128615927 H 0.0 **** 0.06
2171 C 133.99861140198436 79.25676316529109 142.42508231862217 C 0.0 **** -0.24
2172 H 133.02856721301276 78.82456942466538 142.18025275331078 H 0.0 **** 0.06
2173 H 134.7885690684176 78.65419166581884 141.97499100532337 H 0.0 **** 0.06
2174 H 134.12601800325376 79.27244249667268 143.50794584640946 H 0.0 **** 0.06
2175 H 134.05154776744308 80.27455101303056 142.03763898628938 H 0.0 **** 0.06
2176 C 88.36681825409653 50.69545163615345 161.23424174065548 C 0.0 **** -0.24
2177 H 88.90920770612536 51.63951601958064 161.28959346484763 H 0.0 **** 0.06
2178 H 87.88051793751166 50.499053488658774 162.18955239323336 H 0.0 **** 0.06
2179 H 89.06495867087293 49.88950243658843 161.00861921679078 H 0.0 **** 0.06
2180 H 87.61399963934377 50.755175924138854 160.44781193477513 H 0.0 **** 0.06
2181 C 198.29011034535029 119.3964774723544 0.13713055488366876 C 0.0 **** -0.24
2182 H 198.2107016670685 119.06453705270224 -0.8984222049134019 H 0.0 **** 0.06
2183 H 198.61312256922875 118.5636177563508 0.7619605201995583 H 0.0 **** 0.06
2184 H 197.3191574164402 119.75387717426713 0.4795083238731479 H 0.0 **** 0.06
2185 H 199.01893934256614 120.20435596606913 0.20471251667311208 H 0.0 **** 0.06
2186 C 185.9580362499535 124.21460990239316 91.472523884319 C 0.0 **** -0.24
2187 H 184.9421126621009 124.37585370485272 91.83443050654705 H 0.0 **** 0.06
2188 H 185.98754787737928 123.31202636132264 90.86206528669152 H 0.0 **** 0.06
2189 H 186.63212777854613 124.10116852506215 92.3226952727093 H 0.0 **** 0.06
2190 H 186.27015740562166 125.06984801279214 90.87308427709004 H 0.0 **** 0.06
2191 C 191.04432156705042 106.2928404259032 173.23224068049387 C 0.0 **** -0.24
2192 H 191.4305969184914 105.70850787442612 172.39681114118184 H 0.0 **** 0.06
2193 H 191.6410155459877 107.19847853200099 173.34823478679368 H 0.0 **** 0.06
2194 H 191.10130867575447 105.70136725213763 174.14578905190302 H 0.0 **** 0.06
2195 H 190.00659418332742 106.56318525424354 173.0381318881581 H 0.0 **** 0.06
2196 C 13.937493409743567 0.8574263701864311 124.38499826014521 C 0.0 **** -0.24
2197 H 14.951086372612963 0.47828125374422825 124.2548254217092 H 0.0 **** 0.06
2198 H 13.9769615288835 1.915833681646518 124.64678244756078 H 0.0 **** 0.06
2199 H 13.442445804100224 0.30473795260382985 125.18352820033391 H 0.0 **** 0.06
2200 H 13.381066089604843 0.7327639358968554 123.45653954946064 H 0.0 **** 0.06
2201 C 15.347581548417963 38.51127524531404 26.047231438929174 C 0.0 **** -0.24
2202 H 15.224962928166903 38.170301552484915 27.074749942547413 H 0.0 **** 0.06
2203 H 16.213850334633207 39.17050976843058 25.985127232441982 H 0.0 **** 0.06
2204 H 14.45538271000467 39.054080012158835 25.73525884786551 H 0.0 **** 0.06
2205 H 15.497132553111996 37.65243124581406 25.393544857928987 H 0.0 **** 0.06
2206 C 143.9624312552998 10.077397993061027 66.2287032771832 C 0.0 **** -0.24
2207 H 144.4012680672726 9.45577629084795 67.00894579521353 H 0.0 **** 0.06
2208 H 142.87544219974276 10.055489764283294 66.31497340215827 H 0.0 **** 0.06
2209 H 144.25713430153746 9.69511486372923 65.25135768431417 H 0.0 **** 0.06
2210 H 144.31538746275228 11.102278772175566 66.33859396596463 H 0.0 **** 0.06
2211 C 46.23552566963835 147.235388148235 176.79803882818416 C 0.0 **** -0.24
2212 H 47.00048872315118 147.90314048681225 177.1930489567122 H 0.0 **** 0.06
2213 H 45.308949623599545 147.792339888992 176.65063013494336 H 0.0 **** 0.06
2214 H 46.06230204809971 146.422672889907 177.50468810914094 H 0.0 **** 0.06
2215 H 46.5686017122639 146.82381496805283 175.84510254679878 H 0.0 **** 0.06
2216 C 62.23569670863293 1.5868249015436717 131.47997227301974 C 0.0 **** -0.24
2217 H 62.76779053782781 1.9472425393737112 130.60003366798665 H 0.0 **** 0.06
2218 H 61.22485465560197 1.2912641625494317 131.19664048072076 H 0.0 **** 0.06
2219 H 62.188188544445495 2.3799205329039594 132.22570544278088 H 0.0 **** 0.06
2220 H 62.76202902061709 0.7281207679321398 131.8959508496648 H 0.0 **** 0.06
2221 C 69.68216262920896 7.746165940559614 131.36854429491748 C 0.0 **** -0.24
2222 H 68.65934478553154 7.968349131870461 131.67132301100244 H 0.0 **** 0.06
2223 H 70.14795933362703 7.09804293278232 132.11125062379907 H 0.0 **** 0.06
2224 H 70.24832192845966 8.674155855029582 131.28946177041942 H 0.0 **** 0.06
2225 H 69.67321187617712 7.242741071238001 130.40186804887932 H 0.0 **** 0.06
2226 C 151.5928410222803 67.79726194384443 130.47481720788298 C 0.0 **** -0.24
2227 H 151.50911029669177 66.93628104162644 131.13750319678059 H 0.0 **** 0.06
2228 H 152.60930341300843 67.85753514002263 130.0846364122171 H 0.0 **** 0.06
2229 H 151.36121561088322 68.70660884005142 131.0288150056633 H 0.0 **** 0.06
2230 H 150.8918503046805 67.68735571424196 129.64769671731395 H 0.0 **** 0.06
2231 C 134.97795713123426 118.83098801616518 19.85365323514945 C 0.0 **** -0.24
2232 H 135.67459281718763 119.66359323429162 19.752539594690205 H 0.0 **** 0.06
2233 H 135.30803836764235 118.17812375511022 20.661721498098373 H 0.0 **** 0.06
2234 H 134.94717888114485 118.26816046137907 18.92078372534573 H 0.0 **** 0.06
2235 H 133.98395265442704 119.21512707756244 20.07917912865284 H 0.0 **** 0.06
2236 C 178.1362745114998 178.07785066826477 118.48564397641815 C 0.0 **** -0.24
2237 H 178.32338473581342 178.31667042436334 117.43874495115239 H 0.0 **** 0.06
2238 H 178.67914842113467 177.17160390873522 118.754272739942 H 0.0 **** 0.06
2239 H 177.06812394601008 177.9198916189186 118.63641201635858 H 0.0 **** 0.06
2240 H 178.4736217990924 178.90388189512566 119.1121907942076 H 0.0 **** 0.06
2241 C 166.8665572499229 15.665291486137974 7.8986437626790575 C 0.0 **** -0.24
2242 H 167.38691173811358 16.527886257517935 7.483242590207453 H 0.0 **** 0.06
2243 H 167.26872043592581 15.439138592648106 8.885987327416444 H 0.0 **** 0.06
2244 H 167.00821988012734 14.805498663349866 7.242479361406879 H 0.0 **** 0.06
2245 H 165.8027408140165 15.88674344042964 7.9813619219265775 H 0.0 **** 0.06
2246 C 73.87065323674517 191.66964811985423 9.518442809951125 C 0.0 **** -0.24
2247 H 74.75105004654627 191.64357848251524 8.875997853141484 H 0.0 **** 0.06
2248 H 73.7167088055264 190.68543051755086 9.962257560519134 H 0.0 **** 0.06
2249 H 72.99733969669816 191.94311221658756 8.927853704933682 H 0.0 **** 0.06
2250 H 74.02022665182584 192.40615405119982 10.308904398030052 H 0.0 **** 0.06
2251 C 167.60761024724155 156.4604309094679 93.59287486322697 C 0.0 **** -0.24
2252 H 167.2243982652181 155.48490920568645 93.89012498952962 H 0.0 **** 0.06
2253 H 166.99545038038514 157.24288850209751 94.04180259061607 H 0.0 **** 0.06
2254 H 167.573616995828 156.54920237412682 92.50746676135955 H 0.0 **** 0.06
2255 H 168.63756836939194 156.56517398330718 93.93443868591046 H 0.0 **** 0.06
2256 C 181.39895907691113 145.28267217688338 34.11339204488205 C 0.0 **** -0.24
2257 H 182.11603144241857 144.67259757983604 34.66407155608654 H 0.0 **** 0.06
2258 H 181.79880830452757 145.50840066891797 33.12500198132935 H 0.0 **** 0.06
2259 H 181.22120124077634 146.21138618734142 34.65501470595001 H 0.0 **** 0.06
2260 H 180.46170582930685 144.73641287462897 34.010811388959624 H 0.0 **** 0.06
2261 C 4.387818416920169 123.85892117431095 160.45530556261855 C 0.0 **** -0.24
2262 H 5.372459009631996 123.70615227969668 160.01423954141273 H 0.0 **** 0.06
2263 H 3.8085370872184683 124.53428141725854 159.82593177949485 H 0.0 **** 0.06
2264 H 4.498565535803891 124.29304030846464 161.44904513533942 H 0.0 **** 0.06
2265 H 3.8720619709496304 122.90179443029078 160.53284501577235 H 0.0 **** 0.06
2266 C 128.08103185875925 13.854043321144026 13.523470157952517 C 0.0 **** -0.24
2267 H 127.18945639710736 13.362427064558638 13.13517346868234 H 0.0 **** 0.06
2268 H 128.457756276565 13.297431580883234 14.38144729097516 H 0.0 **** 0.06
2269 H 127.83058829271232 14.869324185486064 13.830426932148619 H 0.0 **** 0.06
2270 H 128.84601661985425 13.887614025357145 12.74755069599535 H 0.0 **** 0.06
2271 C 108.5776578998937 15.908620414798847 110.62663345771594 C 0.0 **** -0.24
2272 H 108.96643516025458 16.542885585000064 109.82975980054161 H 0.0 **** 0.06
2273 H 108.85988004391564 14.872381076100098 110.43474176061744 H 0.0 **** 0.06
2274 H 107.49148171691297 15.989826417132363 110.65823331932177 H 0.0 **** 0.06
2275 H 108.99440917388765 16.228412067656762 111.58143937826904 H 0.0 **** 0.06
2276 C 162.80704717807032 64.20256922954485 31.12892050136685 C 0.0 **** -0.24
2277 H 161.80114282542715 64.58194564250937 31.309127759916237 H 0.0 **** 0.06
2278 H 162.98755542614336 64.14719272479391 30.055001549212392 H 0.0 **** 0.06
2279 H 162.90388731788096 63.208354322406564 31.56595643131388 H 0.0 **** 0.06
2280 H 163.5353539620908 64.87193306838765 31.586058279191832 H 0.0 **** 0.06
2281 C 97.3966850548652 15.75639839298367 171.28347991601714 C 0.0 **** -0.24
2282 H 97.72551924967036 16.33586421408998 170.4214508601558 H 0.0 **** 0.06
2283 H 97.84550786624999 16.165416720976438 172.18839138289283 H 0.0 **** 0.06
2284 H 97.70579999128938 14.717890827586572 171.16253907326615 H 0.0 **** 0.06
2285 H 96.31084993023993 15.804989382595139 171.36180403684588 H 0.0 **** 0.06
2286 C 12.788740652419563 152.55103858313933 88.37584618825579 C 0.0 **** -0.24
2287 H 12.322455532687599 153.39707785174477 88.88050589612641 H 0.0 **** 0.06
2288 H 13.108577226594747 151.81776534324916 89.11739230425405 H 0.0 **** 0.06
2289 H 13.653699071982345 152.89682201900524 87.81040439991003 H 0.0 **** 0.06
2290 H 12.070049730930549 152.09191816645466 87.6974573085601 H 0.0 **** 0.06
2291 C 100.65734911395126 180.39480774593702 183.41836501919687 C 0.0 **** -0.24
2292 H 101.15207116761005 180.8823383386328 184.2592471296997 H 0.0 **** 0.06
2293 H 101.331813969422 180.3790614300988 182.5614537497577 H 0.0 **** 0.06
2294 H 99.75404006840853 180.94687471898902 183.15986841139954 H 0.0 **** 0.06
2295 H 100.39365826027162 179.37390798100233 183.69360214149793 H 0.0 **** 0.06
2296 C 124.55141117485516 17.594740596069414 91.5721210413347 C 0.0 **** -0.24
2297 H 123.71487098209815 17.00354108892057 91.1983572780697 H 0.0 **** 0.06
2298 H 124.17248875206576 18.48597212254728 92.07118698987148 H 0.0 **** 0.06
2299 H 125.1887163264802 17.88864596762646 90.73767003935205 H 0.0 **** 0.06
2300 H 125.1291460128306 16.999367724962113 92.2793305505545 H 0.0 **** 0.06
2301 C 88.60652060424437 61.43354921041555 7.3513487155453845 C 0.0 **** -0.24
2302 H 88.15774370486693 62.321668335534355 6.905955175176928 H 0.0 **** 0.06
2303 H 89.37798720171699 61.73451716478007 8.06108408260809 H 0.0 **** 0.06
2304 H 89.05150329607105 60.81914210258458 6.5684611125032575 H 0.0 **** 0.06
2305 H 87.83840005928647 60.86026049816803 7.871586727815497 H 0.0 **** 0.06
2306 C 184.91813022415852 126.00412594243102 148.1416712866044 C 0.0 **** -0.24
2307 H 184.1959209854585 126.2689500523478 147.36976930010928 H 0.0 **** 0.06
2308 H 185.22047101797645 124.96492637127125 148.01611669061492 H 0.0 **** 0.06
2309 H 184.46347850665515 126.13528885715766 149.12323930384014 H 0.0 **** 0.06
2310 H 185.79251748564826 126.65061465077872 148.0570605135019 H 0.0 **** 0.06
2311 C 126.71551176904177 74.89154683186426 194.4429356261327 C 0.0 **** -0.24
2312 H 126.26860508725952 75.88369870313635 194.3753133178206 H 0.0 **** 0.06
2313 H 125.9265747609195 74.13984265988833 194.48154826886542 H 0.0 **** 0.06
2314 H 127.32390096839526 74.82813205754917 195.34460951995075 H 0.0 **** 0.06
2315 H 127.34199975544664 74.71594642318726 193.56781905996357 H 0.0 **** 0.06
2316 C 60.399674700472715 91.62378522239135 125.41178705363072 C 0.0 **** -0.24
2317 H 60.454019822853354 92.3514801063213 126.22071067107336 H 0.0 **** 0.06
2318 H 61.2547341558769 90.95061721323415 125.47106466221842 H 0.0 **** 0.06
2319 H 60.41150288513174 92.14332917934226 124.45351628891635 H 0.0 **** 0.06
2320 H 59.47757425134084 91.04885478095213 125.50256949776559 H 0.0 **** 0.06
2321 C 55.05073453133363 125.3104669906746 129.1139975130228 C 0.0 **** -0.24
2322 H 54.12439281393128 124.76306064334145 129.2834671587583 H 0.0 **** 0.06
2323 H 55.2572774765882 125.35292287075774 128.04389087136371 H 0.0 **** 0.06
2324 H 55.87071327865931 124.80305529023119 129.62264661832546 H 0.0 **** 0.06
2325 H 54.95148938394905 126.32305007344499 129.50570734763812 H 0.0 **** 0.06
2326 C 51.377291972578135 44.36360570103869 195.1826433807029 C 0.0 **** -0.24
2327 H 52.4484782241892 44.55739452070125 195.12616690924085 H 0.0 **** 0.06
2328 H 51.07600200633354 44.28920117192256 196.2272045277248 H 0.0 **** 0.06
2329 H 51.15055876674522 43.42816266118983 194.67079568615245 H 0.0 **** 0.06
2330 H 50.8348940642107 45.17952500863501 194.7043099319069 H 0.0 **** 0.06
2331 C 188.24684495002373 33.09025320355711 12.332637963537934 C 0.0 **** -0.24
2332 H 188.05669977673864 33.60526373332989 13.274324562669875 H 0.0 **** 0.06
2333 H 188.9263486871861 33.6871447522161 11.723705415696827 H 0.0 **** 0.06
2334 H 187.30782313659353 32.94952163884581 11.798194960630724 H 0.0 **** 0.06
2335 H 188.69827359787632 32.11911105829559 12.535699020164031 H 0.0 **** 0.06
2336 C 99.48656072898822 99.16843946743515 155.44508506434903 C 0.0 **** -0.24
2337 H 99.90075116434411 98.1754431538196 155.61915482701906 H 0.0 **** 0.06
2338 H 98.41697260369543 99.0872197389881 155.25355109098672 H 0.0 **** 0.06
2339 H 99.97735293208711 99.62068168993574 154.58224631547367 H 0.0 **** 0.06
2340 H 99.65268522526185 99.79079884784781 156.3241454300037 H 0.0 **** 0.06
2341 C 58.29784952533423 103.51522470413701 58.94239401179517 C 0.0 **** -0.24
2342 H 58.71073714065932 104.51651479799224 58.815631755822125 H 0.0 **** 0.06
2343 H 59.08763330886272 102.83550751646268 59.264685550243755 H 0.0 **** 0.06
2344 H 57.88489337030049 103.17006813226382 57.99447163108481 H 0.0 **** 0.06
2345 H 57.50987777269542 103.54016210734258 59.6951445192237 H 0.0 **** 0.06
2346 C 101.90937200721953 38.18988692083572 155.8223060875948 C 0.0 **** -0.24
2347 H 101.67846045310057 39.248919139257836 155.70562144798606 H 0.0 **** 0.06
2348 H 102.19940717222971 37.9932262704024 156.8547909007976 H 0.0 **** 0.06
2349 H 102.72837833207836 37.9215510703781 155.15569062648714 H 0.0 **** 0.06
2350 H 101.02854800311002 37.597505884735355 155.5730562505762 H 0.0 **** 0.06
2351 C 180.9198492499861 9.427689341452883 174.62736352053537 C 0.0 **** -0.24
2352 H 180.08715886688998 9.872923845109526 174.08236475318674 H 0.0 **** 0.06
2353 H 180.61270338771968 9.22368095379175 175.65352612855605 H 0.0 **** 0.06
2354 H 181.76259391789677 10.117835879392203 174.62997678995828 H 0.0 **** 0.06
2355 H 181.2132396767903 8.496155022052825 174.14306138587438 H 0.0 **** 0.06
2356 C 190.98934051122458 84.22937685361589 33.51620838688217 C 0.0 **** -0.24
2357 H 190.1274036314826 84.61765042437693 34.0595270308487 H 0.0 **** 0.06
2358 H 190.65821717244808 83.8056490605862 32.56767910877903 H 0.0 **** 0.06
2359 H 191.47484709530806 83.45549036365045 34.110287277086854 H 0.0 **** 0.06
2360 H 191.69408397307683 85.03903697823736 33.32737297461529 H 0.0 **** 0.06
2361 C 26.298942546829693 193.45896168973633 5.421770654793647 C 0.0 **** -0.24
2362 H 27.140494279038904 192.81236248510663 5.6710813857362155 H 0.0 **** 0.06
2363 H 26.56919301903747 194.09883950225662 4.5814946530112195 H 0.0 **** 0.06
2364 H 26.04789261347844 194.0770320975184 6.283814496776358 H 0.0 **** 0.06
2365 H 25.438395789694226 192.8468114195799 5.151839166259066 H 0.0 **** 0.06
2366 C 160.92754461402848 95.08417422315694 146.55653763716188 C 0.0 **** -0.24
2367 H 160.48665533705486 94.16277235995511 146.93619395718605 H 0.0 **** 0.06
2368 H 160.60455365843677 95.92277762626136 147.1751917448859 H 0.0 **** 0.06
2369 H 160.60403786589916 95.24599231748462 145.52903535581027 H 0.0 **** 0.06
2370 H 162.01462766874346 95.00658457980526 146.58834921396357 H 0.0 **** 0.06
2371 C 94.55046201401325 106.28579328743743 66.49903274305086 C 0.0 **** -0.24
2372 H 94.60336808982217 106.45042605205444 67.57589332510986 H 0.0 **** 0.06
2373 H 94.01528428997253 107.11280558313518 66.03121849269291 H 0.0 **** 0.06
2374 H 94.02385312818373 105.35289409693954 66.30017137480502 H 0.0 **** 0.06
2375 H 95.55990207417676 106.22794766743922 66.090816685101 H 0.0 **** 0.06
2376 C 79.63654446444849 161.52240955075808 140.29587115395583 C 0.0 **** -0.24
2377 H 80.44581567682656 162.15609553725074 139.93248724288173 H 0.0 **** 0.06
2378 H 79.47713940019298 160.70121240845032 139.5964056571129 H 0.0 **** 0.06
2379 H 78.72398235473932 162.11247311876537 140.37863018547947 H 0.0 **** 0.06
2380 H 79.90072875546443 161.12156077657994 141.27399107670158 H 0.0 **** 0.06
2381 C 134.68030539030386 104.49624613682548 160.28497933431507 C 0.0 **** -0.24
2382 H 133.77932183046926 103.91993592518142 160.07790007712194 H 0.0 **** 0.06
2383 H 135.23592057061703 104.64760733710497 159.3598911083847 H 0.0 **** 0.06
2384 H 135.30303790997377 103.95390357978866 160.99770332094215 H 0.0 **** 0.06
2385 H 134.4045398020431 105.4627008395878 160.70607945915387 H 0.0 **** 0.06
2386 C 64.651456565878 76.01001931960774 143.6861683853081 C 0.0 **** -0.24
2387 H 65.58798374151672 76.3842165769042 143.27254664247084 H 0.0 **** 0.06
2388 H 64.13812059188353 75.4069559935085 142.93697382227978 H 0.0 **** 0.06
2389 H 64.01972134157756 76.85077961262769 143.9725883850709 H 0.0 **** 0.06
2390 H 64.86120504175801 75.39842165606869 144.56324394646532 H 0.0 **** 0.06
2391 C 79.69271405877868 150.80797271897637 70.67333058428244 C 0.0 **** -0.24
2392 H 78.8795526416566 150.13033501178202 70.41036411935124 H 0.0 **** 0.06
2393 H 79.65200174695838 151.6891099711486 70.03347488235323 H 0.0 **** 0.06
2394 H 80.64770663335273 150.30029910669901 70.53321850148262 H 0.0 **** 0.06
2395 H 79.59045784645744 151.10907148896212 71.71576565338262 H 0.0 **** 0.06
2396 C 173.2319785397666 9.687447011994436 16.275888864515025 C 0.0 **** -0.24
2397 H 172.4270102230759 9.67832811936512 15.539900703899534 H 0.0 **** 0.06
2398 H 173.67791146931017 8.694576762397332 16.33693948316906 H 0.0 **** 0.06
2399 H 172.83035433762126 9.96621022954605 17.249991911676005 H 0.0 **** 0.06
2400 H 173.99040646591982 10.409346513677235 15.975219871293987 H 0.0 **** 0.06
2401 C 153.85655287892928 95.68546123618887 133.40059726233082 C 0.0 **** -0.24
2402 H 154.89420437333771 95.77825688901669 133.07862825044253 H 0.0 **** 0.06
2403 H 153.19622731023122 95.99181185482087 132.58910842664432 H 0.0 **** 0.06
2404 H 153.6873418670587 96.32325597403383 134.26821825669967 H 0.0 **** 0.06
2405 H 153.65007454292478 94.6487021158623 133.6658969058583 H 0.0 **** 0.06
2406 C 152.79817779359647 178.309331888054 90.49150392092554 C 0.0 **** -0.24
2407 H 153.4929987632101 178.97242259149593 91.00582502444246 H 0.0 **** 0.06
2408 H 151.93624658976108 178.88135622089686 90.14760647789856 H 0.0 **** 0.06
2409 H 152.4663940220526 177.52935909092167 91.17763850768165 H 0.0 **** 0.06
2410 H 153.29711680858367 177.8529041253402 89.6370302678952 H 0.0 **** 0.06
2411 C 187.12725083950653 35.40842225985962 177.77232309280805 C 0.0 **** -0.24
2412 H 187.73921719901284 35.51234883918026 178.6682584259365 H 0.0 **** 0.06
2413 H 186.08073191898208 35.299085222392776 178.05819065007606 H 0.0 **** 0.06
2414 H 187.44693322299884 34.52771007033027 177.21512662843196 H 0.0 **** 0.06
2415 H 187.24293430451988 36.2953713455822 177.14852636231726 H 0.0 **** 0.06
2416 C 31.721316376716402 129.6166932527857 100.79362946452085 C 0.0 **** -0.24
2417 H 31.076817833177813 129.83122427981664 99.9409315363786 H 0.0 **** 0.06
2418 H 32.21069606855667 130.53510493823052 101.1191232328745 H 0.0 **** 0.06
2419 H 32.476105001415874 128.88545466052426 100.50372613015901 H 0.0 **** 0.06
2420 H 31.121202218859423 129.21525278964367 101.60988078773929 H 0.0 **** 0.06
2421 C 6.811711244736813 166.32697695329068 22.168368329820396 C 0.0 **** -0.24
2422 H 6.41817222443661 167.2927717717962 21.849893666685347 H 0.0 **** 0.06
2423 H 7.171179596016273 166.40161362272215 23.194784209957106 H 0.0 **** 0.06
2424 H 7.63554008646409 166.0379628833096 21.51536021278902 H 0.0 **** 0.06
2425 H 6.023037928639155 165.5768453486536 22.111962179161807 H 0.0 **** 0.06
2426 C 60.74143149335998 138.32909780540146 71.49949897375224 C 0.0 **** -0.24
2427 H 60.265065866470195 138.569958586223 70.54967765665015 H 0.0 **** 0.06
2428 H 60.45223292341922 137.32287707292383 71.80525825732262 H 0.0 **** 0.06
2429 H 60.42285882093063 139.04398649670918 72.25795351252793 H 0.0 **** 0.06
2430 H 61.82414355593846 138.37715139188805 71.38616711622015 H 0.0 **** 0.06
2431 C 143.85859145651176 69.38205569502388 180.51422995355767 C 0.0 **** -0.24
2432 H 144.47067597895318 68.50210192396095 180.70825713803353 H 0.0 **** 0.06
2433 H 142.8358545280085 69.07399037237064 180.29833043633437 H 0.0 **** 0.06
2434 H 144.2634153933805 69.92422642535033 179.65826312376024 H 0.0 **** 0.06
2435 H 143.8669946674081 70.0301294200657 181.39051387550592 H 0.0 **** 0.06
2436 C 28.40642503355383 50.62646454054145 182.33428366281413 C 0.0 **** -0.24
2437 H 28.588001096779237 50.1814213222185 183.3117934152242 H 0.0 **** 0.06
2438 H 29.185788441563375 50.31040454257827 181.64066024551013 H 0.0 **** 0.06
2439 H 28.41692222891595 51.71358275935229 182.42159632546569 H 0.0 **** 0.06
2440 H 27.43440923157266 50.301297643694795 181.96211236767442 H 0.0 **** 0.06
2441 C 77.01721879723847 167.25838038782229 141.28823535390944 C 0.0 **** -0.24
2442 H 76.74033139379706 166.20453391735404 141.26092852832133 H 0.0 **** 0.06
2443 H 77.82909073298454 167.43827265594774 140.5823164837438 H 0.0 **** 0.06
2444 H 77.34505134063807 167.52170897701737 142.29333014386418 H 0.0 **** 0.06
2445 H 76.1564693858726 167.86799288915552 141.01472353588244 H 0.0 **** 0.06
2446 C 18.402888955439465 34.32508699639902 38.115924390658876 C 0.0 **** -0.24
2447 H 17.89192030985508 33.545907049485464 37.550131724700464 H 0.0 **** 0.06
2448 H 18.11845753511183 35.30249925634661 37.72565431343412 H 0.0 **** 0.06
2449 H 19.481369376759943 34.19519089392659 38.021005029142884 H 0.0 **** 0.06
2450 H 18.119686421459676 34.25578637539837 39.165879349732734 H 0.0 **** 0.06
2451 C 19.669209595211385 4.631617423130848 127.06740619456446 C 0.0 **** -0.24
2452 H 20.002257578021613 3.6036145878138086 127.21062594412837 H 0.0 **** 0.06
2453 H 19.023789219293505 4.685723210290178 126.19009906054322 H 0.0 **** 0.06
2454 H 20.535793071644946 5.2774395770352385 126.92182964785533 H 0.0 **** 0.06
2455 H 19.1159419446942 4.9599285865129445 127.94683746062526 H 0.0 **** 0.06
2456 C 50.55529061431781 14.634691850449599 99.90690512958986 C 0.0 **** -0.24
2457 H 49.964004454750636 15.510053679329047 100.17373467478583 H 0.0 **** 0.06
2458 H 51.61530243999192 14.876464496795506 99.98052976011246 H 0.0 **** 0.06
2459 H 50.32027785801631 14.335702282928594 98.88544297990202 H 0.0 **** 0.06
2460 H 50.31942973577824 13.816649038210244 100.58852622256688 H 0.0 **** 0.06
2461 C 169.11160509219138 183.18488945241768 171.47643009547187 C 0.0 **** -0.24
2462 H 168.20442414023432 182.9779273378241 170.90799707066938 H 0.0 **** 0.06
2463 H 169.9772111120784 183.11562571724204 170.81656384708492 H 0.0 **** 0.06
2464 H 169.20884191904406 182.45557222433217 172.28171085404483 H 0.0 **** 0.06
2465 H 169.05487297895 184.18763999537904 171.89921075326126 H 0.0 **** 0.06
2466 C 107.30742243310164 90.64311731779554 121.79013761836529 C 0.0 **** -0.24
2467 H 106.3173904488329 90.18976638622527 121.7356555356879 H 0.0 **** 0.06
2468 H 107.70909243483106 90.51875608834865 122.79574697374551 H 0.0 **** 0.06
2469 H 107.2343472315847 91.7046591140691 121.55606778222875 H 0.0 **** 0.06
2470 H 107.9679713525527 90.15677535429037 121.0721318328674 H 0.0 **** 0.06
2471 C 77.89667325491818 91.32179992915565 0.555285656384072 C 0.0 **** -0.24
2472 H 76.86334453840975 91.14931440971722 0.2531346892184061 H 0.0 **** 0.06
2473 H 77.94583456231541 91.41910627023248 1.6399779314260954 H 0.0 **** 0.06
2474 H 78.26278442170614 92.23646457998345 0.08977319020499408 H 0.0 **** 0.06
2475 H 78.51274913518105 90.48038099080671 0.23767367771793602 H 0.0 **** 0.06
2476 C 32.816163795396676 114.90611407189829 132.593976965604 C 0.0 **** -0.24
2477 H 33.187754891333526 114.9300145123112 133.61822473873258 H 0.0 **** 0.06
2478 H 33.65410459021611 114.79325816943287 131.90628048777072 H 0.0 **** 0.06
2479 H 32.28961672968882 115.83534632932484 132.37749770432228 H 0.0 **** 0.06
2480 H 32.13224245841013 114.06547166259168 132.47590227480745 H 0.0 **** 0.06
2481 C 198.52304058949647 166.23651142125587 134.62711928520747 C 0.0 **** -0.24
2482 H 197.59739242639085 166.30272207764455 135.1985659599289 H 0.0 **** 0.06
2483 H 199.14449890305494 167.10731181089852 134.84006990403697 H 0.0 **** 0.06
2484 H 198.29221937789455 166.20652685133007 133.5622281275505 H 0.0 **** 0.06
2485 H 199.0584515754711 165.32980358433946 134.9084725391072 H 0.0 **** 0.06
2486 C 13.593960857468737 10.389824720722785 199.01655500688463 C 0.0 **** -0.24
2487 H 14.397578628835419 10.961265223064736 199.4821738797193 H 0.0 **** 0.06
2488 H 12.985690387303599 11.054384064861303 198.40207667557598 H 0.0 **** 0.06
2489 H 12.973144107638014 9.938831461009457 199.79093432811192 H 0.0 **** 0.06
2490 H 14.02158081001079 9.605937209889696 198.39138604536362 H 0.0 **** 0.06
2491 C 149.69733791999 32.53098092306895 154.34678481620773 C 0.0 **** -0.24
2492 H 149.32642925736025 31.551318931784166 154.64925604497176 H 0.0 **** 0.06
2493 H 150.0357399043138 32.48636380548264 153.3114466592363 H 0.0 **** 0.06
2494 H 150.52997522129567 32.818189750392804 154.98944562185306 H 0.0 **** 0.06
2495 H 148.89741459677953 33.26561262224263 154.43709327402885 H 0.0 **** 0.06
2496 C 97.58652826254402 90.44572976452628 185.24765455560294 C 0.0 **** -0.24
2497 H 97.23614466397797 91.28834943659598 185.84295119086056 H 0.0 **** 0.06
2498 H 96.87334316574996 90.24450705622613 184.44759509166033 H 0.0 **** 0.06
2499 H 97.67912009852796 89.56544593778543 185.8835805054615 H 0.0 **** 0.06
2500 H 98.55841622591703 90.68609394114844 184.81549769384364 H 0.0 **** 0.06
2501 C 21.558691688853855 161.14630768518518 60.01928216712963 C 0.0 **** -0.24
2502 H 22.528405848007793 161.47345192174578 59.643348937468204 H 0.0 **** 0.06
2503 H 21.47293482138764 160.0650453588882 59.90824956352691 H 0.0 **** 0.06
2504 H 20.76590047711821 161.63382576725326 59.452033638202465 H 0.0 **** 0.06
2505 H 21.46823334018356 161.411884424196 61.07163853422617 H 0.0 **** 0.06
2506 C 40.79237897549655 135.90046542524334 141.8401430874284 C 0.0 **** -0.24
2507 H 40.3149222800545 134.98418933634298 142.18812573984914 H 0.0 **** 0.06
2508 H 41.81200783679364 135.68053086369468 141.52340113991613 H 0.0 **** 0.06
2509 H 40.811944553162164 136.62963535304112 142.65045111477892 H 0.0 **** 0.06
2510 H 40.229125657307065 136.30529284941758 140.9999376860391 H 0.0 **** 0.06
2511 C 194.79202877429228 17.022939575969886 105.19964395061743 C 0.0 **** -0.24
2512 H 194.8946950725427 15.938893020353518 105.24774152660513 H 0.0 **** 0.06
2513 H 193.75722959206092 17.27982281276624 104.97287239140681 H 0.0 **** 0.06
2514 H 195.4435095780823 17.414562682788016 104.4189604240294 H 0.0 **** 0.06
2515 H 195.07273871176665 17.45708727454428 106.15924146485023 H 0.0 **** 0.06
2516 C 33.03855601781203 100.90185698320616 96.48097876300557 C 0.0 **** -0.24
2517 H 33.75657899289371 101.33001495327764 97.18008635987161 H 0.0 **** 0.06
2518 H 32.36451265423062 101.68273494767158 96.12816458904857 H 0.0 **** 0.06
2519 H 32.46299876070046 100.12318383136875 96.98183568505931 H 0.0 **** 0.06
2520 H 33.570844790041775 100.47103464828072 95.6317588241773 H 0.0 **** 0.06
2521 C 182.99777476199114 23.996308827749715 166.95442173623098 C 0.0 **** -0.24
2522 H 183.51914065810988 24.614720739126312 166.2239123330139 H 0.0 **** 0.06
2523 H 183.72431045816674 23.413813815748284 167.52162817331882 H 0.0 **** 0.06
2524 H 182.3144228286835 23.321923217591802 166.4378562735113 H 0.0 **** 0.06
2525 H 182.4334775770805 24.635372894806693 167.63352738767833 H 0.0 **** 0.06
2526 C 108.74181948716205 70.6157876295858 87.21968041363283 C 0.0 **** -0.24
2527 H 108.29169282841542 69.91189643338924 86.5203944669772 H 0.0 **** 0.06
2528 H 108.15104020236163 71.5318391973192 87.2435353506155 H 0.0 **** 0.06
2529 H 109.75773955365344 70.84653636625097 86.89983965434965 H 0.0 **** 0.06
2530 H 108.76600068613243 70.17228496372957 88.21496646919132 H 0.0 **** 0.06
2531 C 192.84422815862737 39.763261313801195 184.29995351234936 C 0.0 **** -0.24
2532 H 192.29101927484885 38.828792538686 184.21479080057549 H 0.0 **** 0.06
2533 H 192.8333037356543 40.28081592972677 183.34038351855062 H 0.0 **** 0.06
2534 H 193.87444315908445 39.550600310727404 184.58658750621305 H 0.0 **** 0.06
2535 H 192.37814646492177 40.392836476064474 185.05805222405814 H 0.0 **** 0.06
2536 C 69.81603564379704 99.60545376303347 112.15922419263177 C 0.0 **** -0.24
2537 H 69.54882664573908 99.87377051779532 113.18121252302234 H 0.0 **** 0.06
2538 H 70.02452870077296 100.51181357756076 111.58937048467254 H 0.0 **** 0.06
2539 H 68.98864059146098 99.06713369248195 111.69711748712933 H 0.0 **** 0.06
2540 H 70.70232162951427 98.97086456391776 112.17055500224825 H 0.0 **** 0.06
2541 C 175.99664337477387 17.692495035916863 168.89213839368622 C 0.0 **** -0.24
2542 H 175.09400559309174 18.193505359134576 169.2437993130144 H 0.0 **** 0.06
2543 H 175.8532035192369 16.61329503119191 168.93502216716294 H 0.0 **** 0.06
2544 H 176.83779491580987 17.974253148758805 169.5261408779609 H 0.0 **** 0.06
2545 H 176.20025678611634 17.992130573385992 167.8634830416934 H 0.0 **** 0.06
2546 C 105.96996969701581 145.94288867040058 192.81807924854579 C 0.0 **** -0.24
2547 H 105.28518240054524 146.51024294443877 193.44837058469906 H 0.0 **** 0.06
2548 H 105.88760996944643 144.88214597689856 193.0566426833027 H 0.0 **** 0.06
2549 H 106.99153667806218 146.27753914422604 192.99865789629746 H 0.0 **** 0.06
2550 H 105.71502908488628 146.10092942848604 191.7704466447624 H 0.0 **** 0.06
2551 C 69.58971276328329 126.00273892033175 159.46204368640525 C 0.0 **** -0.24
2552 H 69.37847735576206 126.78650462969242 160.18996855375485 H 0.0 **** 0.06
2553 H 69.46023181979315 126.398991846608 158.45409079977802 H 0.0 **** 0.06
2554 H 68.90274802695166 125.17022587027543 159.61647221664163 H 0.0 **** 0.06
2555 H 70.61525134955758 125.65638885622292 159.5879162853151 H 0.0 **** 0.06
2556 C 52.91994723562283 94.50071407956972 105.01849021338106 C 0.0 **** -0.24
2557 H 52.44297998080344 94.91938919308006 105.90486038253431 H 0.0 **** 0.06
2558 H 52.32061358073118 93.67066489237817 104.64226124786506 H 0.0 **** 0.06
2559 H 53.915584891864825 94.14210046525972 105.27677800480083 H 0.0 **** 0.06
2560 H 52.998051219729845 95.26970709971377 104.25074015067767 H 0.0 **** 0.06
2561 C 56.07428251082595 149.87139047550943 179.2713475946278 C 0.0 **** -0.24
2562 H 57.041590570405674 150.19227394646194 179.65848918050634 H 0.0 **** 0.06
2563 H 55.28047241846362 150.26905246447743 179.90475204023116 H 0.0 **** 0.06
2564 H 56.027277297403046 148.7835292904848 179.26848725148696 H 0.0 **** 0.06
2565 H 55.94889228123729 150.24343036821494 178.2542648538845 H 0.0 **** 0.06
2566 C 10.168961880572795 114.90097440773971 11.817274423376283 C 0.0 **** -0.24
2567 H 10.027716297937957 115.9226209639771 12.170030263659207 H 0.0 **** 0.06
2568 H 10.929015613919432 114.40841517341033 12.42455312928773 H 0.0 **** 0.06
2569 H 10.489810906395547 114.91804137029979 10.775218126585308 H 0.0 **** 0.06
2570 H 9.228350560153018 114.3550946771501 11.898289062833285 H 0.0 **** 0.06
2571 C 124.32790416989212 64.41526026527515 110.31207948710104 C 0.0 **** -0.24
2572 H 124.2528221517951 63.650616781583835 111.08484187119001 H 0.0 **** 0.06
2573 H 124.28944941190593 65.40244761528015 110.77277033049532 H 0.0 **** 0.06
2574 H 123.49905395572432 64.30793010694038 109.61250659035144 H 0.0 **** 0.06
2575 H 125.27126491637273 64.29991025836495 109.77838148306216 H 0.0 **** 0.06
2576 C 4.372413463278463 105.39598286651778 149.6650296792468 C 0.0 **** -0.24
2577 H 3.9965576141647148 105.99019695019751 150.4979844723059 H 0.0 **** 0.06
2578 H 3.5665796816468287 105.21754959400971 148.95279013078218 H 0.0 **** 0.06
2579 H 4.74511541746358 104.44252486025425 150.039443577947 H 0.0 **** 0.06
2580 H 5.182290123406517 105.93380805699263 149.172178239902 H 0.0 **** 0.06
2581 C 22.477962443987224 68.6360075647818 89.69698503173234 C 0.0 **** -0.24
2582 H 22.820390347749026 69.5342297727283 90.21079596713159 H 0.0 **** 0.06
2583 H 23.17234131186467 67.81753081376146 89.89473625061973 H 0.0 **** 0.06
2584 H 22.433789952330415 68.82478352204815 88.62452938993087 H 0.0 **** 0.06
2585 H 21.486188610813997 68.36648607915141 90.05968395451086 H 0.0 **** 0.06
2586 C 154.22587680973248 130.45673052578945 191.22714839390306 C 0.0 **** -0.24
2587 H 154.64823559092468 130.18193784357717 190.2620765506272 H 0.0 **** 0.06
2588 H 153.305306745584 129.8959614155966 191.3948281064623 H 0.0 **** 0.06
2589 H 154.00704962603118 131.52474323167561 191.23710919735453 H 0.0 **** 0.06
2590 H 154.94089576354492 130.22522258320853 192.01658784673708 H 0.0 **** 0.06
2591 C 171.44334880073654 126.71042612504479 186.39839349908164 C 0.0 **** -0.24
2592 H 171.11949458557302 127.3499179510138 187.21980955929533 H 0.0 **** 0.06
2593 H 172.51364677977992 126.52241966353498 186.48470974231705 H 0.0 **** 0.06
2594 H 171.2356361220937 127.20559586237971 185.44956840055266 H 0.0 **** 0.06
2595 H 170.90372020632776 125.76408905600096 186.43979183314954 H 0.0 **** 0.06
2596 C 183.2599718548318 112.45138205881562 36.15813165445019 C 0.0 **** -0.24
2597 H 184.27858141073108 112.09308398466817 36.30931287048986 H 0.0 **** 0.06
2598 H 182.68522571094837 112.30514174563757 37.072873329030784 H 0.0 **** 0.06
2599 H 182.79643938882268 111.89388500025052 35.344194085453665 H 0.0 **** 0.06
2600 H 183.28111371562923 113.51136402464874 35.90741685740508 H 0.0 **** 0.06
2601 C 32.797560901870156 5.370503432907412 104.25056989362116 C 0.0 **** -0.24
2602 H 33.64849116416747 4.992305974112611 103.6840029924956 H 0.0 **** 0.06
2603 H 32.07304393275797 4.568188505925207 104.39653784040092 H 0.0 **** 0.06
2604 H 32.32928910827707 6.186809553629018 103.70134088009061 H 0.0 **** 0.06
2605 H 33.13829275586909 5.731932974309132 105.22054162578888 H 0.0 **** 0.06
2606 C 137.18396955600406 61.06657531048819 6.923524483389826 C 0.0 **** -0.24
2607 H 137.21963888961102 61.62936923006663 7.856761003873032 H 0.0 **** 0.06
2608 H 137.87842784569796 60.22732668436083 6.9793737889713725 H 0.0 **** 0.06
2609 H 137.46615451047114 61.71674869302575 6.0961709436257365 H 0.0 **** 0.06
2610 H 136.17381825705343 60.69172816885805 6.763225937687793 H 0.0 **** 0.06
2611 C 26.748110229607235 54.309304867697506 117.48876023496962 C 0.0 **** -0.24
2612 H 27.524900854932724 53.93944971515697 116.81985429037877 H 0.0 **** 0.06
2613 H 27.115651279982103 54.29380722996234 118.5156054605037 H 0.0 **** 0.06
2614 H 25.86669734308063 53.6733778864255 117.40836202106618 H 0.0 **** 0.06
2615 H 26.48612492936327 55.33075588054169 117.21153428132698 H 0.0 **** 0.06
2616 C 128.13570359334997 34.91025965175024 77.84609375048093 C 0.0 **** -0.24
2617 H 127.21121062806503 34.5450884075814 77.39923539077809 H 0.0 **** 0.06
2618 H 128.04870295156613 34.88333314725904 78.93260539291273 H 0.0 **** 0.06
2619 H 128.31595459782326 35.934385320922985 77.52079719240068 H 0.0 **** 0.06
2620 H 128.9648366650577 34.27749741001685 77.53184075558686 H 0.0 **** 0.06
2621 C 134.0951145114147 103.42388290436051 166.18258296414982 C 0.0 **** -0.24
2622 H 134.73479558968296 103.5381725383869 165.30695364818123 H 0.0 **** 0.06
2623 H 133.81789180955772 104.4074978523154 166.5600228430341 H 0.0 **** 0.06
2624 H 134.63348310378197 102.87612032623036 166.95643573613933 H 0.0 **** 0.06
2625 H 133.1962832842696 102.87300562623912 165.90622934295413 H 0.0 **** 0.06
2626 C 6.668030443066613 113.93914621183566 155.0763481421992 C 0.0 **** -0.24
2627 H 7.599862253367391 113.37631368598505 155.02817457513606 H 0.0 **** 0.06
2628 H 6.211007251260284 113.80335458647568 156.05665274964917 H 0.0 **** 0.06
2629 H 5.9866041026860515 113.5801173117554 154.30457544857836 H 0.0 **** 0.06
2630 H 6.8740925332042195 114.99728061339613 154.91531185967312 H 0.0 **** 0.06
2631 C 79.36531618236455 69.78731200725099 115.61691822605934 C 0.0 **** -0.24
2632 H 79.93006577937933 68.85493954303087 115.62888357131183 H 0.0 **** 0.06
2633 H 78.43021725225893 69.6388108216342 115.07700613301819 H 0.0 **** 0.06
2634 H 79.9531860987993 70.56083984304894 115.12125466706772 H 0.0 **** 0.06
2635 H 79.14978127548099 70.0944216827346 116.64056613662751 H 0.0 **** 0.06
2636 C 188.57946068598574 52.715585699825965 173.91068955770464 C 0.0 **** -0.24
2637 H 189.174624893481 53.36842693292465 174.5494395712204 H 0.0 **** 0.06
2638 H 189.2409401058194 52.138346403503306 173.2645638290714 H 0.0 **** 0.06
2639 H 187.9087349091559 53.31947552230048 173.2991017000674 H 0.0 **** 0.06
2640 H 187.99312988367114 52.037048159793414 174.53103841069552 H 0.0 **** 0.06
2641 C 90.30060135053102 106.63635983495129 194.78527734763273 C 0.0 **** -0.24
2642 H 90.2201812257372 106.67273231398076 193.69967093167955 H 0.0 **** 0.06
2643 H 90.09017584027393 105.62431661290532 195.13180485629408 H 0.0 **** 0.06
2644 H 89.58180948044722 107.32857499874501 195.22527976292048 H 0.0 **** 0.06
2645 H 91.30942633281191 106.92187563992371 195.08466268353973 H 0.0 **** 0.06
2646 C 20.761497727145382 55.93784149455911 183.44047114790212 C 0.0 **** -0.24
2647 H 21.40728176172084 55.9534848417772 184.3185514136695 H 0.0 **** 0.06
2648 H 20.56655327130268 56.959598236070974 183.11468517034177 H 0.0 **** 0.06
2649 H 19.819819684391433 55.4499032187025 183.692005211733 H 0.0 **** 0.06
2650 H 21.25292002790887 55.387099497556136 182.63838071742077 H 0.0 **** 0.06
2651 C 110.68913266665575 29.704116628076605 178.13707864212785 C 0.0 **** -0.24
2652 H 110.61799445274036 28.809515482187635 177.51952799870037 H 0.0 **** 0.06
2653 H 109.80999805294775 30.328357805434564 177.97518058732862 H 0.0 **** 0.06
2654 H 111.58520575715562 30.262096742489916 177.8661046906485 H 0.0 **** 0.06
2655 H 110.74310272132186 29.41788158721954 179.18733166497572 H 0.0 **** 0.06
2656 C 103.12204645270828 121.92416125733811 154.3547693909025 C 0.0 **** -0.24
2657 H 102.11024337065027 121.52119179007721 154.3049615108077 H 0.0 **** 0.06
2658 H 103.310945064966 122.30602672525862 155.3583498677311 H 0.0 **** 0.06
2659 H 103.22606706427857 122.73316095960965 153.63257423049237 H 0.0 **** 0.06
2660 H 103.83827220042045 121.13576617154249 154.12449013013685 H 0.0 **** 0.06
2661 C 8.77284120964628 87.02547720539667 35.37902591434863 C 0.0 **** -0.24
2662 H 7.7351840856732395 87.23223205954832 35.11661629028822 H 0.0 **** 0.06
2663 H 8.911929127200018 85.95004787795258 35.48937533445218 H 0.0 **** 0.06
2664 H 9.016448701806873 87.52236727486243 36.318004256551944 H 0.0 **** 0.06
2665 H 9.427587347063074 87.39791501361705 34.59087220637235 H 0.0 **** 0.06
2666 C 131.77808262661102 198.22141271747398 51.7233608655481 C 0.0 **** -0.24
2667 H 132.01742603160005 199.18530904770324 51.27378630002677 H 0.0 **** 0.06
2668 H 131.27826813708683 198.38124609157515 52.67966285197012 H 0.0 **** 0.06
2669 H 132.6970548661959 197.65768895110938 51.88297669589562 H 0.0 **** 0.06
2670 H 131.11977823757215 197.66289952377556 51.057873805014225 H 0.0 **** 0.06
2671 C 10.85547074677961 35.48536903816856 7.700269364715666 C 0.0 **** -0.24
2672 H 10.06413213703739 36.15832400609037 7.368713158409321 H 0.0 **** 0.06
2673 H 11.280907042073913 35.85712604662183 8.63236504943589 H 0.0 **** 0.06
2674 H 11.63364357403232 35.437643410567915 6.938959977513832 H 0.0 **** 0.06
2675 H 10.44134703011801 34.489515785029084 7.860508389494441 H 0.0 **** 0.06
2676 C 127.34702986496103 55.052454757313285 134.1951801966029 C 0.0 **** -0.24
2677 H 127.81132078086159 55.652582406524175 134.97744640629978 H 0.0 **** 0.06
2678 H 127.20667351221778 55.66474829331764 133.30371430911396 H 0.0 **** 0.06
2679 H 126.38052604825305 54.68833565838267 134.54234632068156 H 0.0 **** 0.06
2680 H 127.99049652179406 54.20473175445801 133.95628672660348 H 0.0 **** 0.06
2681 C 127.25823277217529 62.21975959178519 179.12398045342454 C 0.0 **** -0.24
2682 H 126.61069388821556 62.59029791757433 179.9181349771714 H 0.0 **** 0.06
2683 H 128.0194859871808 61.566297312524114 179.55150975121472 H 0.0 **** 0.06
2684 H 127.73923019589952 63.06107650999934 178.62495139013845 H 0.0 **** 0.06
2685 H 126.66253531912926 61.66123202698037 178.40142720058532 H 0.0 **** 0.06
2686 C 117.0772291377487 162.87043771040896 90.5644402521803 C 0.0 **** -0.24
2687 H 117.32208928897595 163.03983125636086 91.6127321980087 H 0.0 **** 0.06
2688 H 116.48503739450959 163.7058938127549 90.19039248362105 H 0.0 **** 0.06
2689 H 116.50516109813947 161.9477933544904 90.46904516437664 H 0.0 **** 0.06
2690 H 117.99698546988785 162.78902814449364 89.98447777717124 H 0.0 **** 0.06
2691 C 93.39023999480918 99.0327639889648 135.31187804774342 C 0.0 **** -0.24
2692 H 94.11903577216498 99.03817429814018 134.50203972918706 H 0.0 **** 0.06
2693 H 93.43350302361324 98.07538265161213 135.83271871690835 H 0.0 **** 0.06
2694 H 92.39071206469063 99.17890253802352 134.90333538557599 H 0.0 **** 0.06
2695 H 93.61860856027096 99.83740977604248 136.01136332631555 H 0.0 **** 0.06
2696 C 13.545584758518572 29.744253399828935 22.21783111809384 C 0.0 **** -0.24
2697 H 13.681576003207226 29.44145325788662 23.256274735894124 H 0.0 **** 0.06
2698 H 13.36699723008622 30.819000558086614 22.173202186591936 H 0.0 **** 0.06
2699 H 12.69114147678934 29.215706669314514 21.7947510766989 H 0.0 **** 0.06
2700 H 14.441798624833353 29.50072027497137 21.64861325911295 H 0.0 **** 0.06
2701 C 26.735883269279356 30.858452636453677 47.47228528704862 C 0.0 **** -0.24
2702 H 27.636788137629196 30.70532335733357 48.066851965301524 H 0.0 **** 0.06
2703 H 25.926559823421314 31.19676348405737 48.119541819764365 H 0.0 **** 0.06
2704 H 26.451885098392353 29.921025755706268 46.99493473775371 H 0.0 **** 0.06
2705 H 26.929068185190317 31.611691968488472 46.708462153354574 H 0.0 **** 0.06
2706 C 34.83666111445851 65.13712163959855 77.05985628282977 C 0.0 **** -0.24
2707 H 35.75228310619303 64.65036633872722 77.3952132869825 H 0.0 **** 0.06
2708 H 34.31002344952067 64.48117595769895 76.36527240964162 H 0.0 **** 0.06
2709 H 35.08522655462434 66.07227505723881 76.55847520956155 H 0.0 **** 0.06
2710 H 34.19866084098598 65.3444137140055 77.91960877788716 H 0.0 **** 0.06
2711 C 86.23234915328538 50.90893518514622 120.81505417447573 C 0.0 **** -0.24
2712 H 86.04708662776488 49.834876437757075 120.83733180931148 H 0.0 **** 0.06
2713 H 87.07337018183512 51.1184084921626 120.15281004923673 H 0.0 **** 0.06
2714 H 86.46500203938399 51.257679969242446 121.82062335008126 H 0.0 **** 0.06
2715 H 85.34319969527326 51.42229180699083 120.44793986041199 H 0.0 **** 0.06
2716 C 161.3558347044783 161.386351099597 92.12832572253865 C 0.0 **** -0.24
2717 H 161.0125071333152 161.6550788664373 91.12924902299096 H 0.0 **** 0.06
2718 H 161.3337217098915 162.2674558784068 92.76982090719275 H 0.0 **** 0.06
2719 H 162.37500936388477 161.00385862519894 92.07167587101563 H 0.0 **** 0.06
2720 H 160.70294481424068 160.61789204200616 92.54236938334876 H 0.0 **** 0.06
2721 C 15.28644220148486 134.09767037319259 137.65279786582624 C 0.0 **** -0.24
2722 H 15.719414778430377 133.94876577548837 136.66353204984188 H 0.0 **** 0.06
2723 H 14.624554439531195 134.96469951177562 137.6332072683313 H 0.0 **** 0.06
2724 H 16.08370821328255 134.26479612649567 138.3771179425491 H 0.0 **** 0.06
2725 H 14.717070414310314 133.21240633536664 137.93635568623762 H 0.0 **** 0.06
2726 C 36.16667986965882 17.811791369695285 130.2751535515337 C 0.0 **** -0.24
2727 H 36.43013941772119 17.007678403454577 129.58796282883378 H 0.0 **** 0.06
2728 H 35.15816695797497 18.162272416853682 130.0552071275743 H 0.0 **** 0.06
2729 H 36.87126113967463 18.635230627021315 130.15833015287598 H 0.0 **** 0.06
2730 H 36.20822565149257 17.441084520251323 131.29930933112897 H 0.0 **** 0.06
2731 C 24.029317528577494 53.96467658891498 162.58813704758927 C 0.0 **** -0.24
2732 H 24.00792511723688 54.10471348484447 163.6681017126936 H 0.0 **** 0.06
2733 H 23.109306183005245 54.35533163461436 162.15360346291854 H 0.0 **** 0.06
2734 H 24.115254324166543 52.90124768650233 162.36174457940018 H 0.0 **** 0.06
2735 H 24.883581396042004 54.49543918627349 162.16990749895803 H 0.0 **** 0.06
2736 C 190.4430975243083 17.798034755659558 173.37436466792616 C 0.0 **** -0.24
2737 H 189.4744407031737 17.332348265739313 173.1904849324874 H 0.0 **** 0.06
2738 H 190.58502685232037 18.625875622012018 172.67831417540452 H 0.0 **** 0.06
2739 H 191.233872334836 17.061595782566656 173.22986715968597 H 0.0 **** 0.06
2740 H 190.47792273479894 18.17324089337319 174.39709544307078 H 0.0 **** 0.06
2741 C 180.25867050750776 186.84690590149862 119.2111375269262 C 0.0 **** -0.24
2742 H 179.49479587442252 187.2849285732076 119.85472543711461 H 0.0 **** 0.06
2743 H 179.78467984668254 186.1905390841513 118.48154577115258 H 0.0 **** 0.06
2744 H 180.95768119472916 186.27168119965728 119.81804054883881 H 0.0 **** 0.06
2745 H 180.79496069561324 187.6403727380056 118.69179190962242 H 0.0 **** 0.06
2746 C 142.88254920385506 119.7327135563614 93.19432210182424 C 0.0 **** -0.24
2747 H 142.57072643088992 120.59683444621476 92.60777174110046 H 0.0 **** 0.06
2748 H 143.2665750349033 120.06844990879853 94.15826036360045 H 0.0 **** 0.06
2749 H 143.66343468370272 119.19341146892961 92.65998347705795 H 0.0 **** 0.06
2750 H 142.0282989399144 119.0746528986214 93.3519270806392 H 0.0 **** 0.06
2751 C 139.48058329169675 22.438191551186208 17.05361767602861 C 0.0 **** -0.24
2752 H 140.29001458518314 21.708820134786947 17.0089631894447 H 0.0 **** 0.06
2753 H 139.38738193298173 22.815330707579278 18.072416607328194 H 0.0 **** 0.06
2754 H 138.5457925550179 21.961395379060946 16.755935954172458 H 0.0 **** 0.06
2755 H 139.6989531350751 23.264247912205064 16.37751623241502 H 0.0 **** 0.06
2756 C 19.978903615868404 68.26995771721965 121.80389426195086 C 0.0 **** -0.24
2757 H 19.176686263058457 67.53270475864372 121.81831851143 H 0.0 **** 0.06
2758 H 20.349801786586866 68.38151399324818 120.78488914291944 H 0.0 **** 0.06
2759 H 20.789947662779213 67.93718061516267 122.45128643588384 H 0.0 **** 0.06
2760 H 19.598713545185632 69.2273300018445 122.15919341016877 H 0.0 **** 0.06
2761 C 108.01474158124938 55.25825539591628 189.32309090815178 C 0.0 **** -0.24
2762 H 108.93738676698803 55.30706092899078 189.9015367282825 H 0.0 **** 0.06
2763 H 107.21513064753475 55.75624527522041 189.8727482079577 H 0.0 **** 0.06
2764 H 107.74541184149146 54.215677456450436 189.15597897170133 H 0.0 **** 0.06
2765 H 108.16033015268766 55.754704188819574 188.3643483884718 H 0.0 **** 0.06
2766 C 100.30154777344853 87.67101460163644 111.95313710744392 C 0.0 **** -0.24
2767 H 100.38774931932119 86.61361069663371 111.70565593858225 H 0.0 **** 0.06
2768 H 100.64889998804432 88.2697054555876 111.11069636909644 H 0.0 **** 0.06
2769 H 100.9100931013244 87.8903108619146 112.83020746217863 H 0.0 **** 0.06
2770 H 99.25971732379872 87.91042905363014 112.1637687644556 H 0.0 **** 0.06
2771 C 180.48333222623148 170.93350775961892 191.90025740331524 C 0.0 **** -0.24
2772 H 180.3588457189942 170.75014646296722 190.8331995704356 H 0.0 **** 0.06
2773 H 181.54429138528906 171.04608444581856 192.1273099806704 H 0.0 **** 0.06
2774 H 180.07839842839365 170.09342985810713 192.463809001304 H 0.0 **** 0.06
2775 H 179.95467427366555 171.84565885202403 192.17651060226942 H 0.0 **** 0.06
2776 C 180.1523705000592 82.83992487346103 77.98774240839026 C 0.0 **** -0.24
2777 H 180.7347892311489 82.57852762165632 78.8714225472753 H 0.0 **** 0.06
2778 H 179.41776699825843 82.05809262618752 77.7935550616487 H 0.0 **** 0.06
2779 H 180.8177187865237 82.9350502065349 77.13003121225006 H 0.0 **** 0.06
2780 H 179.6399228544987 83.78602442505098 78.15717290999731 H 0.0 **** 0.06
2781 C 26.46826208216163 50.015261669576404 24.48499266913123 C 0.0 **** -0.24
2782 H 26.514209705192073 50.88582050814966 23.829573079602085 H 0.0 **** 0.06
2783 H 26.25889701873494 50.33865253641079 25.504947723647433 H 0.0 **** 0.06
2784 H 27.42333679829089 49.49087012268325 24.458021022446673 H 0.0 **** 0.06
2785 H 25.677589713211816 49.346842413832576 24.145034475745035 H 0.0 **** 0.06
2786 C 139.31066436206444 83.11582085901739 95.08272856764921 C 0.0 **** -0.24
2787 H 139.6307532440514 82.85672977344436 96.09115782397933 H 0.0 **** 0.06
2788 H 139.30500215476215 82.21900144189016 94.46174097148352 H 0.0 **** 0.06
2789 H 139.99895317238887 83.84688282513395 94.65924470103604 H 0.0 **** 0.06
2790 H 138.3066013152105 83.53990876768833 95.11799257932654 H 0.0 **** 0.06
2791 C 178.60684993961544 178.56066053609305 105.22333702443689 C 0.0 **** -0.24
2792 H 178.89747835089875 177.51772234721733 105.09298071917158 H 0.0 **** 0.06
2793 H 178.52179806857444 178.78237619758616 106.28763775692892 H 0.0 **** 0.06
2794 H 177.64696070924603 178.73456153116408 104.73692794323773 H 0.0 **** 0.06
2795 H 179.36302023569922 179.20721854884417 104.77678475830129 H 0.0 **** 0.06
2796 C 93.73217337899075 28.23466624001972 39.75576822789455 C 0.0 **** -0.24
2797 H 94.07929045450908 28.923470701015674 38.98582029110334 H 0.0 **** 0.06
2798 H 93.0177339178581 28.743393918098036 40.403768313173586 H 0.0 **** 0.06
2799 H 94.58222325118362 27.894942452055318 40.348083735748446 H 0.0 **** 0.06
2800 H 93.25094702749317 27.377215743734666 39.28667282147369 H 0.0 **** 0.06
2801 C 184.0408690859565 76.96082236769351 83.3141973016466 C 0.0 **** -0.24
2802 H 184.89292327054034 77.64067185901129 83.29496119094216 H 0.0 **** 0.06
2803 H 183.68832532430554 76.79256751898107 82.29632948300898 H 0.0 **** 0.06
2804 H 183.23924426874987 77.39966940139017 83.9087413522424 H 0.0 **** 0.06
2805 H 184.34372372815864 76.01169406863859 83.75590445648572 H 0.0 **** 0.06
2806 C 38.897408446648654 158.3923046963315 12.43611650684862 C 0.0 **** -0.24
2807 H 39.911421943494645 158.68240908648335 12.710633802502763 H 0.0 **** 0.06
2808 H 38.76690403048019 158.4998212502409 11.359319650469267 H 0.0 **** 0.06
2809 H 38.18384602975914 159.03214586738397 12.954556107046372 H 0.0 **** 0.06
2810 H 38.72759151076548 157.35369840634735 12.72077748976924 H 0.0 **** 0.06
2811 C 83.7461751199466 19.666081928740255 48.28947180346307 C 0.0 **** -0.24
2812 H 82.89251317801572 19.948990246693143 47.672856141910074 H 0.0 **** 0.06
2813 H 83.7601151370636 20.27864231808445 49.19262582837732 H 0.0 **** 0.06
2814 H 84.66711182199495 19.824030738642023 47.72859887949089 H 0.0 **** 0.06
2815 H 83.66273031289481 18.614861660281406 48.564252773253855 H 0.0 **** 0.06
2816 C 40.63994197509359 166.9646910665839 174.37488250829153 C 0.0 **** -0.24
2817 H 41.511159588525175 167.38607207950906 174.87622529574665 H 0.0 **** 0.06
2818 H 40.52543389915661 167.4276131416465 173.3942506937261 H 0.0 **** 0.06
2819 H 39.748550970966335 167.15699301201363 174.9739808084127 H 0.0 **** 0.06
2820 H 40.77272492266542 165.88920477292805 174.2571089762444 H 0.0 **** 0.06
2821 C 163.01441314050072 84.1505195135098 91.34501620000256 C 0.0 **** -0.24
2822 H 164.02932357075395 83.88353489276668 91.64275896424928 H 0.0 **** 0.06
2823 H 163.0157272775424 85.14711802842763 90.90473409397924 H 0.0 **** 0.06
2824 H 162.3645089725232 84.13942367787584 92.21951784026749 H 0.0 **** 0.06
2825 H 162.6502659902036 83.42895584466791 90.61301454133732 H 0.0 **** 0.06
2826 C 116.2815820470841 35.24434310060653 18.05486211393395 C 0.0 **** -0.24
2827 H 116.64100548084025 36.14011417304425 18.560296225111244 H 0.0 **** 0.06
2828 H 115.22778853483584 35.367611386713804 17.80252330893876 H 0.0 **** 0.06
2829 H 116.39909664248336 34.38337926777794 18.71264800095588 H 0.0 **** 0.06
2830 H 116.85783755836545 35.085119911703885 17.142830717319185 H 0.0 **** 0.06
2831 C 19.34277898405979 20.885032522928043 59.05882394724273 C 0.0 **** -0.24
2832 H 19.33315206776915 19.861519655600375 58.68317859601558 H 0.0 **** 0.06
2833 H 19.292800807751803 21.580407647459992 58.22077901642933 H 0.0 **** 0.06
2834 H 20.260558107980273 21.05747411600811 59.62078217842276 H 0.0 **** 0.06
2835 H 18.48200483631784 21.03930956863877 59.7110311117483 H 0.0 **** 0.06
2836 C 160.51295365432264 198.19725233230236 180.50271106725384 C 0.0 **** -0.24
2837 H 160.69115749906092 197.81133578531794 179.4989175153363 H 0.0 **** 0.06
2838 H 159.49945160071164 198.59521637635285 180.56353798866002 H 0.0 **** 0.06
2839 H 161.22849626768445 198.98922372981448 180.7203316622972 H 0.0 **** 0.06
2840 H 160.63060488152757 197.39112333473963 181.2277117131192 H 0.0 **** 0.06
2841 C 137.37978568289 141.07085229601702 10.789025953572974 C 0.0 **** -0.24
2842 H 137.2307390973092 142.13846849360334 10.626669991904073 H 0.0 **** 0.06
2843 H 137.83232471042797 140.62770011875273 9.902620159093651 H 0.0 **** 0.06
2844 H 136.4177497746716 140.59591326200854 10.983549796016995 H 0.0 **** 0.06
2845 H 138.0375812464826 140.92316126713587 11.646438382101216 H 0.0 **** 0.06
2846 C 57.90911674587139 86.34780819528663 172.43723398440918 C 0.0 **** -0.24
2847 H 57.067203415799014 86.5614109830097 173.09610459829253 H 0.0 **** 0.06
2848 H 58.0032279600961 85.26865845670542 172.30898172665525 H 0.0 **** 0.06
2849 H 58.824202053287294 86.74318275648127 172.87630628360824 H 0.0 **** 0.06
2850 H 57.73920520298981 86.81533079883303 171.46780923421676 H 0.0 **** 0.06
2851 C 113.91010607550618 41.0167640337788 97.50460849317574 C 0.0 **** -0.24
2852 H 114.97940802104063 40.89930821656179 97.32583437442028 H 0.0 **** 0.06
2853 H 113.35445940615114 40.38863831902415 96.80799485748105 H 0.0 **** 0.06
2854 H 113.63039776765834 42.0596606007403 97.35820945563663 H 0.0 **** 0.06
2855 H 113.67913210763106 40.71842377629474 98.52744905217327 H 0.0 **** 0.06
2856 C 144.8221114829652 84.50218190161942 94.6537933483155 C 0.0 **** -0.24
2857 H 144.67380961286665 83.45859998524182 94.92935458913499 H 0.0 **** 0.06
2858 H 145.88843681026978 84.70053265295908 94.5434939013825 H 0.0 **** 0.06
2859 H 144.41109674854715 85.1456419898648 95.43221014069039 H 0.0 **** 0.06
2860 H 144.31466707343563 84.70419584239153 93.71098148909738 H 0.0 **** 0.06
2861 C 3.421522864967983 27.696581993420864 30.4716696117067 C 0.0 **** -0.24
2862 H 2.856406325027109 27.641684274610185 29.54057388881303 H 0.0 **** 0.06
2863 H 2.731749213852794 27.81944371769208 31.307414199652413 H 0.0 **** 0.06
2864 H 4.1020487076913525 28.547291460419217 30.43354263661567 H 0.0 **** 0.06
2865 H 3.9940313629531943 26.77881085776903 30.603827972726236 H 0.0 **** 0.06
2866 C 118.07911766428171 18.42755083702086 64.39314981457551 C 0.0 **** -0.24
2867 H 119.0837060313489 18.019087068417335 64.28795369627323 H 0.0 **** 0.06
2868 H 118.11399673504474 19.327318997264626 65.00797288326851 H 0.0 **** 0.06
2869 H 117.43428335396163 17.68779310701943 64.86768000146606 H 0.0 **** 0.06
2870 H 117.68323738727992 18.675649052454773 63.40784438695533 H 0.0 **** 0.06
2871 C 53.57499429159725 146.39264860510983 65.07943862334639 C 0.0 **** -0.24
2872 H 54.284143755248124 146.6556098436506 65.86355601326954 H 0.0 **** 0.06
2873 H 52.84510557761945 147.1953404102239 64.96571943315996 H 0.0 **** 0.06
2874 H 53.06053574724626 145.469959373698 65.34962132188912 H 0.0 **** 0.06
2875 H 54.107325320117866 146.24994005763526 64.13970429830567 H 0.0 **** 0.06
2876 C 40.70150642015858 186.88349323053228 106.7942422879972 C 0.0 **** -0.24
2877 H 40.891151565334866 187.81816935785127 106.2665113547682 H 0.0 **** 0.06
2878 H 39.67924112457672 186.5589301464369 106.6011486772569 H 0.0 **** 0.06
2879 H 40.83877353614406 187.03655924071276 107.86402179210685 H 0.0 **** 0.06
2880 H 41.39786709485759 186.12122483589314 106.44324882561688 H 0.0 **** 0.06
2881 C 197.64795749963454 86.55782026260795 192.79631112285193 C 0.0 **** -0.24
2882 H 197.17721913863 87.53710256144913 192.87988292158292 H 0.0 **** 0.06
2883 H 196.8792581772782 85.79383058473317 192.674903410821 H 0.0 **** 0.06
2884 H 198.2240333933717 86.3542845310505 193.6994796965169 H 0.0 **** 0.06
2885 H 198.31131928925836 86.54606337319896 191.93097846248696 H 0.0 **** 0.06
2886 C 126.64634079323511 166.06726894483114 107.13025591829054 C 0.0 **** -0.24
2887 H 126.83999694317549 165.188032109281 107.74453888292916 H 0.0 **** 0.06
2888 H 125.79772316761822 165.87311914466525 106.47529360239622 H 0.0 **** 0.06
2889 H 127.52714648038886 166.28981126337345 106.52747739106607 H 0.0 **** 0.06
2890 H 126.42232864987659 166.91866324635652 107.77429786019937 H 0.0 **** 0.06
2891 C 2.073351464643423 159.04680098485827 110.74575627765842 C 0.0 **** -0.24
2892 H 2.461936232204721 159.92364592457506 110.22704293669216 H 0.0 **** 0.06
2893 H 2.899856909004825 158.38815168314713 111.01230745001038 H 0.0 **** 0.06
2894 H 1.3812854391860867 158.5162009281118 110.09168450572918 H 0.0 **** 0.06
2895 H 1.5513376183144771 159.36128383035677 111.64961122833097 H 0.0 **** 0.06
2896 C 152.89412312566998 54.526675554838846 197.0594241548067 C 0.0 **** -0.24
2897 H 152.84071609944917 53.44905206842469 197.21311861055727 H 0.0 **** 0.06
2898 H 152.96864773277477 55.02792307497123 198.02535154645497 H 0.0 **** 0.06
2899 H 151.9965950801414 54.8648690791272 196.5424336223191 H 0.0 **** 0.06
2900 H 153.77129398571714 54.76406167660127 196.45812990301005 H 0.0 **** 0.06
2901 C 117.74537025243916 134.92467758452017 19.7220310099148 C 0.0 **** -0.24
2902 H 118.52483450688447 134.47854711258245 20.339342722955237 H 0.0 **** 0.06
2903 H 116.7941444306089 134.43120006460313 19.923944549700337 H 0.0 **** 0.06
2904 H 118.00187281009684 134.8048451782561 18.669232204779902 H 0.0 **** 0.06
2905 H 117.65979826001646 135.9863825093042 19.956030571742573 H 0.0 **** 0.06
2906 C 172.7051089501686 102.46767914510869 104.21946018253266 C 0.0 **** -0.24
2907 H 173.36810521017262 101.78123470136475 104.74660881353967 H 0.0 **** 0.06
2908 H 171.6772904391755 102.29815088192447 104.54021703333726 H 0.0 **** 0.06
2909 H 172.7851321384458 102.29706741864791 103.14616497761386 H 0.0 **** 0.06
2910 H 172.9920299992806 103.49419184098232 104.44607144448361 H 0.0 **** 0.06
2911 C 198.11178720530935 105.68321807198143 158.17900848809757 C 0.0 **** -0.24
2912 H 197.58871492267502 105.64085451301838 159.1337023505764 H 0.0 **** 0.06
2913 H 199.1633896435199 105.91487834281219 158.35059383736893 H 0.0 **** 0.06
2914 H 197.66678045663798 106.45823917357978 157.5549868796403 H 0.0 **** 0.06
2915 H 198.02905999140583 104.7199836873477 157.6763123623956 H 0.0 **** 0.06
2916 C 57.600572341456854 100.3804047728512 138.00880512130476 C 0.0 **** -0.24
2917 H 58.4904712895695 100.6446010230874 138.58132578997288 H 0.0 **** 0.06
2918 H 56.95470653155935 101.25420595200026 137.91829791884805 H 0.0 **** 0.06
2919 H 57.063924074037004 99.58148064436429 138.51925642051611 H 0.0 **** 0.06
2920 H 57.89711494302894 100.04243105068338 137.01573516591196 H 0.0 **** 0.06
2921 C 134.04865722781605 118.5483200891141 141.72788473794924 C 0.0 **** -0.24
2922 H 134.15678908500135 118.92145594779709 140.7087278083166 H 0.0 **** 0.06
2923 H 133.14634269420782 117.9417880193235 141.79761269087516 H 0.0 **** 0.06
2924 H 133.97682848848717 119.39019358279012 142.41622500771615 H 0.0 **** 0.06
2925 H 134.91641475668285 117.94100736986695 141.98621751661344 H 0.0 **** 0.06
2926 C 179.7821963308735 189.13297415940144 145.5237037608856 C 0.0 **** -0.24
2927 H 180.5174442447469 188.49361307978688 145.0349475837894 H 0.0 **** 0.06
2928 H 180.2941429156195 189.9429087846068 146.04270594337123 H 0.0 **** 0.06
2929 H 179.20970182037613 188.54535824312003 146.24117379253016 H 0.0 **** 0.06
2930 H 179.1091503776957 189.54949367866453 144.77457673027573 H 0.0 **** 0.06
2931 C 74.31433029901707 163.8810177513858 162.32837346294727 C 0.0 **** -0.24
2932 H 75.10327666121674 163.1764558369262 162.06577334466022 H 0.0 **** 0.06
2933 H 74.31504944527488 164.04253075980995 163.40600823305283 H 0.0 **** 0.06
2934 H 73.34938757752353 163.47549580730745 162.02222283803718 H 0.0 **** 0.06
2935 H 74.48854373221421 164.82774169623204 161.81828218996287 H 0.0 **** 0.06
2936 C 156.74251489838412 53.22981522035306 182.70634272335042 C 0.0 **** -0.24
2937 H 157.00312860685813 53.54644985924227 183.71668806114596 H 0.0 **** 0.06
2938 H 157.5148921626605 52.560886905618645 182.3249990686949 H 0.0 **** 0.06
2939 H 156.6664810981914 54.10408924955385 182.0604244242633 H 0.0 **** 0.06
2940 H 155.78602739455562 52.70759927625761 182.72565183548096 H 0.0 **** 0.06
2941 C 15.467569344377893 127.91982481682595 78.11794586016333 C 0.0 **** -0.24
2942 H 16.047580539949948 128.37105604989358 77.31289799193695 H 0.0 **** 0.06
2943 H 15.566801759965273 128.5237031801582 79.01954472722079 H 0.0 **** 0.06
2944 H 15.83600132890328 126.91231538861078 78.31146668784857 H 0.0 **** 0.06
2945 H 14.417562895694772 127.87321726252196 77.82551138653308 H 0.0 **** 0.06
2946 C 165.15985516397998 101.58242246309521 110.94544849542933 C 0.0 **** -0.24
2947 H 164.1260093298076 101.70400793576775 110.62416603542431 H 0.0 **** 0.06
2948 H 165.31432952969107 100.56093484991908 111.29417536026074 H 0.0 **** 0.06
2949 H 165.37135991609372 102.27954856307136 111.75663074165607 H 0.0 **** 0.06
2950 H 165.8272875658484 101.78597165720058 110.10830968486783 H 0.0 **** 0.06
2951 C 197.49618282401497 165.20928182146088 187.46861467972806 C 0.0 **** -0.24
2952 H 196.41179548954037 165.16279882958867 187.57263457866242 H 0.0 **** 0.06
2953 H 197.81094984151906 164.55418760837915 186.65579982003112 H 0.0 **** 0.06
2954 H 197.96431683299795 164.8862242184103 188.39854587131657 H 0.0 **** 0.06
2955 H 197.7960253224139 166.23389028863556 187.2469332323882 H 0.0 **** 0.06
2956 C 135.21285779487346 161.1383252508503 154.07840875130984 C 0.0 **** -0.24
2957 H 135.56600606736384 161.46092068269303 153.09859336929358 H 0.0 **** 0.06
2958 H 134.8822101048961 162.00627475372485 154.64846351852796 H 0.0 **** 0.06
2959 H 136.0235287781653 160.64074122958613 154.61015715861964 H 0.0 **** 0.06
2960 H 134.38095109063465 160.44491685380302 153.953930967516 H 0.0 **** 0.06
2961 C 76.25914233300493 87.65407189088941 11.020971736538485 C 0.0 **** -0.24
2962 H 77.05274480259386 87.80268949406585 10.288233976057171 H 0.0 **** 0.06
2963 H 76.64215906298296 87.86646965342996 12.018848004364827 H 0.0 **** 0.06
2964 H 75.9129294033782 86.62064363489199 10.97609003405347 H 0.0 **** 0.06
2965 H 75.42979870908621 88.32525389207191 10.799180068966365 H 0.0 **** 0.06
2966 C 135.41077303255838 151.3029602285358 27.522479658472662 C 0.0 **** -0.24
2967 H 134.41976685671483 151.02403694866825 27.165817039109015 H 0.0 **** 0.06
2968 H 135.40590602781623 152.3490137364479 27.829907808587677 H 0.0 **** 0.06
2969 H 136.13737171804394 151.16167634140686 26.72283356215172 H 0.0 **** 0.06
2970 H 135.68008511611515 150.67591911295693 28.373249988232487 H 0.0 **** 0.06
2971 C 156.54230408523108 9.212779468432046 178.31434252322654 C 0.0 **** -0.24
2972 H 156.26179327877657 10.003477586228598 177.6185085949688 H 0.0 **** 0.06
2973 H 157.4800196659383 9.477591948349243 178.80412160488603 H 0.0 **** 0.06
2974 H 156.66808558591464 8.27678486507483 177.77002202862758 H 0.0 **** 0.06
2975 H 155.76108443886352 9.09493220576482 179.06502525302102 H 0.0 **** 0.06
2976 C 192.40008216947746 139.34112169799351 11.981848661143488 C 0.0 **** -0.24
2977 H 191.54007341327315 139.286763302814 11.315004025509154 H 0.0 **** 0.06
2978 H 192.44795980421705 138.43624398344113 12.587961475770157 H 0.0 **** 0.06
2979 H 192.30059128055075 140.2098263012088 12.63323608342668 H 0.0 **** 0.06
2980 H 193.31147026210215 139.43304299243687 11.391075521659985 H 0.0 **** 0.06
2981 C 184.44257713765086 122.1551078649781 158.53738971358462 C 0.0 **** -0.24
2982 H 183.58344363910484 122.32756551271439 157.88838532652426 H 0.0 **** 0.06
2983 H 185.0050216290552 123.08257783667307 158.64954295734861 H 0.0 **** 0.06
2984 H 185.08335020257854 121.39219235433171 158.0949448114966 H 0.0 **** 0.06
2985 H 184.09685222609548 121.8184279737107 159.5152034167303 H 0.0 **** 0.06
2986 C 65.36650675343844 137.03526717362408 16.437279556968292 C 0.0 **** -0.24
2987 H 65.31074247936641 137.189084725266 15.360275769271936 H 0.0 **** 0.06
2988 H 66.37771028302512 136.73158014351708 16.709498785253402 H 0.0 **** 0.06
2989 H 64.66165122670691 136.2556655509774 16.72909921796645 H 0.0 **** 0.06
2990 H 65.11400695629499 137.96256865512927 16.95103288886179 H 0.0 **** 0.06
2991 C 99.82300766352091 147.79712561210872 155.95563072486544 C 0.0 **** -0.24
2992 H 99.58953915834826 147.0522780124139 155.19412024137475 H 0.0 **** 0.06
2993 H 100.8991031029222 147.9683289509213 155.97718755544554 H 0.0 **** 0.06
2994 H 99.49243552490316 147.4360342214791 156.92922701660132 H 0.0 **** 0.06
2995 H 99.3109294323732 148.72976072221988 155.7198462711205 H 0.0 **** 0.06
2996 C 35.69003621351345 81.29705033135065 112.39996939593567 C 0.0 **** -0.24
2997 H 35.20631888258998 81.62006524528616 111.47786007357797 H 0.0 **** 0.06
2998 H 36.005068648313696 82.17200038266125 112.96973134919017 H 0.0 **** 0.06
2999 H 36.56011368970307 80.68714632449564 112.15852177602534 H 0.0 **** 0.06
3000 H 34.98674421179801 80.71096106332251 112.99218171294297 H 0.0 **** 0.06
3001 C 14.759567973662314 8.27399744431051 40.114806543794984 C 0.0 **** -0.24
3002 H 15.432932436442002 9.107314389359544 40.311864455857446 H 0.0 **** 0.06
3003 H 14.34159155833779 7.91404194431891 41.05537735709211 H 0.0 **** 0.06
3004 H 15.310332248710779 7.468380698565653 39.62971784539789 H 0.0 **** 0.06
3005 H 13.952285381721374 8.605923300818915 39.46148293482311 H 0.0 **** 0.06
3006 C 21.66067812660576 151.59311268120015 80.72282157875341 C 0.0 **** -0.24
3007 H 21.79794442156839 150.99292877088178 79.82266995426971 H 0.0 **** 0.06
3008 H 21.041212340211402 152.45896929246982 80.49016917903316 H 0.0 **** 0.06
3009 H 22.63172828094217 151.92791891814153 81.0869287787826 H 0.0 **** 0.06
3010 H 21.17280888900497 150.99092065082596 81.48949299149919 H 0.0 **** 0.06
3011 C 19.550745390248665 157.52391644216712 121.05348874346612 C 0.0 **** -0.24
3012 H 19.76793904671905 158.30627856048534 121.78119962658204 H 0.0 **** 0.06
3013 H 20.461976808109284 156.9653833066919 120.83817099187036 H 0.0 **** 0.06
3014 H 19.175390638740282 157.97656443731162 120.1355506782329 H 0.0 **** 0.06
3015 H 18.797155265649536 156.84912469639863 121.45997701431287 H 0.0 **** 0.06
3016 C 189.8875945662386 32.06798674177912 168.76704700222842 C 0.0 **** -0.24
3017 H 189.39255862896303 31.139349114264718 168.48243275966493 H 0.0 **** 0.06
3018 H 190.57355037738265 32.37196874563696 167.9767235007924 H 0.0 **** 0.06
3019 H 190.44231711976315 31.914256445694775 169.69255473475022 H 0.0 **** 0.06
3020 H 189.1386522521397 32.845553166630566 168.91803889670086 H 0.0 **** 0.06
3021 C 110.39108457433318 181.78995925281242 46.905670660471 C 0.0 **** -0.24
3022 H 111.33790057589408 181.63202589267172 46.38859019300418 H 0.0 **** 0.06
3023 H 110.00148424744324 180.83108241027367 47.25006070965901 H 0.0 **** 0.06
3024 H 109.67627031524432 182.2496343289173 46.22332611671402 H 0.0 **** 0.06
3025 H 110.55026748398393 182.44612446219804 47.761446743731824 H 0.0 **** 0.06
3026 C 185.71146824956526 48.79476421007399 17.996863862209352 C 0.0 **** -0.24
3027 H 186.05021773944688 47.76887347688745 17.852116944673597 H 0.0 **** 0.06
3028 H 185.6871963932233 49.02166042272779 19.062998788589468 H 0.0 **** 0.06
3029 H 184.71308105072202 48.9100487266561 17.57635805058335 H 0.0 **** 0.06
3030 H 186.39861785785868 49.47692219192612 17.495675675043643 H 0.0 **** 0.06
3031 C 43.225294508797504 11.194028668706693 115.27417203740646 C 0.0 **** -0.24
3032 H 43.33225919109003 10.736605411823376 116.25784790237466 H 0.0 **** 0.06
3033 H 42.16744210210112 11.308748890066312 115.04032975575112 H 0.0 **** 0.06
3034 H 43.6964837834054 10.5566603299865 114.52482432980491 H 0.0 **** 0.06
3035 H 43.70645215728382 12.171508574857796 115.27408015009058 H 0.0 **** 0.06
3036 C 15.145235933461777 62.48897244382516 27.003757801915583 C 0.0 **** -0.24
3037 H 14.189967582068107 62.09830841934948 26.6527767705752 H 0.0 **** 0.06
3038 H 15.956057203909722 61.88262401319753 26.5980668303728 H 0.0 **** 0.06
3039 H 15.173919004512754 62.45365928629491 28.09276282600962 H 0.0 **** 0.06
3040 H 15.259523372721901 63.52008158224456 26.67026718071719 H 0.0 **** 0.06
3041 C 45.767120423505915 14.26659211895381 12.833566100215307 C 0.0 **** -0.24
3042 H 46.77838225697869 14.516941294713718 12.513868642673117 H 0.0 **** 0.06
3043 H 45.58955045471488 14.671646925737605 13.829692190100275 H 0.0 **** 0.06
3044 H 45.6502441199936 13.182846153718685 12.854786513687486 H 0.0 **** 0.06
3045 H 45.04942616298584 14.69531228521464 12.133662061198834 H 0.0 **** 0.06
3046 C 136.42027517493685 168.1376945578531 140.17936588860198 C 0.0 **** -0.24
3047 H 135.74137007275118 168.9194378406986 140.51967894856983 H 0.0 **** 0.06
3048 H 137.44425057353402 168.40934334205951 140.43520372062932 H 0.0 **** 0.06
3049 H 136.33223387386448 168.02579695127494 139.0984522245882 H 0.0 **** 0.06
3050 H 136.1612610314959 167.1953322935545 140.66357529670836 H 0.0 **** 0.06
3051 C 155.19550563045988 41.259313032943226 188.89381253714015 C 0.0 **** -0.24
3052 H 154.8412630124762 42.28176088911988 189.0270988576597 H 0.0 **** 0.06
3053 H 156.2843029707581 41.25476727061067 188.85317573618886 H 0.0 **** 0.06
3054 H 154.79440226838477 40.85466432427012 187.96391027095797 H 0.0 **** 0.06
3055 H 154.85935098367344 40.64769852922501 189.73114606490967 H 0.0 **** 0.06
3056 C 86.14532143360032 178.66141301077138 191.06268150144982 C 0.0 **** -0.24
3057 H 85.43346143078708 177.96918844355716 190.6128024379438 H 0.0 **** 0.06
3058 H 85.86480090636877 178.84836271697804 192.09952176685647 H 0.0 **** 0.06
3059 H 86.13717162114807 179.60023857098741 190.50929933558032 H 0.0 **** 0.06
3060 H 87.14454080400907 178.2279589008027 191.02858086601682 H 0.0 **** 0.06
3061 C 53.03446550405857 180.82854786652183 109.20295017301612 C 0.0 **** -0.24
3062 H 52.44173575688353 180.63588329555796 108.30914959374752 H 0.0 **** 0.06
3063 H 53.42442024848759 179.8870532847776 109.58964763902975 H 0.0 **** 0.06
3064 H 52.407101760793466 181.300641956403 109.95983365997154 H 0.0 **** 0.06
3065 H 53.86323593967754 181.49031300386216 108.95336425909613 H 0.0 **** 0.06
3066 C 37.93946094283393 71.63192124898585 7.526693457142429 C 0.0 **** -0.24
3067 H 38.99589412627324 71.88480413137187 7.620921244261979 H 0.0 **** 0.06
3068 H 37.41469928208167 71.92181840239081 8.436988201219528 H 0.0 **** 0.06
3069 H 37.835954034436185 70.55818914374278 7.372822241912523 H 0.0 **** 0.06
3070 H 37.513343624782806 72.16373378021557 6.676303468032998 H 0.0 **** 0.06
3071 C 187.02789905651215 11.465551076933018 60.2772355424317 C 0.0 **** -0.24
3072 H 188.10612283327396 11.30834841871993 60.24888958347543 H 0.0 **** 0.06
3073 H 186.57294133677223 10.738270930761715 60.95005405844904 H 0.0 **** 0.06
3074 H 186.61671296128495 11.34261596563347 59.27581075102364 H 0.0 **** 0.06
3075 H 186.81777453738425 12.473075639994342 60.635267118428715 H 0.0 **** 0.06
3076 C 131.40427132218082 52.365083453614886 38.54799591942174 C 0.0 **** -0.24
3077 H 132.00081560479515 52.10264474306261 39.42215182164841 H 0.0 **** 0.06
3078 H 131.76687256392256 51.812522143126955 37.680916320193546 H 0.0 **** 0.06
3079 H 131.48841011349282 53.4350398023595 38.3583442583695 H 0.0 **** 0.06
3080 H 130.36060002836075 52.109769885076744 38.731421364831874 H 0.0 **** 0.06
3081 C 2.4269958438934225 15.55477243441635 27.157559329402517 C 0.0 **** -0.24
3082 H 2.6664899698289446 16.20966805177102 26.31990130112598 H 0.0 **** 0.06
3083 H 1.3465222676060762 15.526743543682585 27.297954879966056 H 0.0 **** 0.06
3084 H 2.9023077366041434 15.93364420846791 28.062244060048457 H 0.0 **** 0.06
3085 H 2.7930081843762196 14.55017351234136 26.947996372120002 H 0.0 **** 0.06
3086 C 34.549596861220394 73.21525832511878 118.52664381226865 C 0.0 **** -0.24
3087 H 35.435207089051275 73.05877347051994 119.14353012575845 H 0.0 **** 0.06
3088 H 34.29957203302587 72.28965757744928 118.00883930502502 H 0.0 **** 0.06
3089 H 34.750409880560795 73.99896181577309 117.79601828761616 H 0.0 **** 0.06
3090 H 33.71499473048475 73.5151435021159 119.16006218732628 H 0.0 **** 0.06
3091 C 124.20212721261612 131.737383712645 127.42788778270847 C 0.0 **** -0.24
3092 H 123.93370201216817 130.89927228315707 126.78475573884094 H 0.0 **** 0.06
3093 H 123.69877135498623 131.63143489645427 128.39008031078544 H 0.0 **** 0.06
3094 H 123.89352003603904 132.67057109924497 126.95651256268343 H 0.0 **** 0.06
3095 H 125.28134649238254 131.74647606244594 127.58141225439653 H 0.0 **** 0.06
3096 C 26.939161670248865 97.85379673488762 167.8336891245551 C 0.0 **** -0.24
3097 H 27.51605841950051 98.40218064806277 167.088695220887 H 0.0 **** 0.06
3098 H 25.895766427009562 98.16604386931397 167.78651092885144 H 0.0 **** 0.06
3099 H 27.337104460357665 98.06307704071128 168.82745620335683 H 0.0 **** 0.06
3100 H 27.009053187857745 96.78564531163602 167.6317501167176 H 0.0 **** 0.06
3101 C 127.25350690233986 151.46113638952292 185.17446744181686 C 0.0 **** -0.24
3102 H 127.44555189607397 152.45703384921086 184.77572110185992 H 0.0 **** 0.06
3103 H 126.20082918224213 151.2127250025583 185.0363113685819 H 0.0 **** 0.06
3104 H 127.49529284392037 151.4414728778641 186.2365599805553 H 0.0 **** 0.06
3105 H 127.87086237352835 150.73383152333983 184.64740432255098 H 0.0 **** 0.06
3106 C 73.70844416977286 14.932243966734177 157.64303712892087 C 0.0 **** -0.24
3107 H 72.66749121362 14.959987762812943 157.96457701661066 H 0.0 **** 0.06
3108 H 74.21553119747244 15.838669674956236 157.97689774304177 H 0.0 **** 0.06
3109 H 73.7505090848918 14.870716335507069 156.55576321330545 H 0.0 **** 0.06
3110 H 74.1995845699866 14.060860177142217 158.07590093714586 H 0.0 **** 0.06
3111 C 142.46929394067018 22.11011631154014 107.23430312630438 C 0.0 **** -0.24
3112 H 141.87489086346932 22.731220658660504 106.56559166810351 H 0.0 **** 0.06
3113 H 142.77009011582035 21.200348087289 106.7128530673742 H 0.0 **** 0.06
3114 H 141.87688384176352 21.847979190825015 108.11082984239371 H 0.0 **** 0.06
3115 H 143.35722163996425 22.659543722668786 107.54725776479407 H 0.0 **** 0.06
3116 C 134.25807110053 7.057913897073433 179.41307973465263 C 0.0 **** -0.24
3117 H 133.78360679691582 7.430583401605475 178.5045711903403 H 0.0 **** 0.06
3118 H 134.62126704959553 6.0446964165541885 179.24407174640464 H 0.0 **** 0.06
3119 H 133.53136021205387 7.053685826990659 180.2260299853156 H 0.0 **** 0.06
3120 H 135.0944812578894 7.705663714049479 179.67681240022702 H 0.0 **** 0.06
3121 C 71.79826158525867 39.58890657101091 15.342438337770545 C 0.0 **** -0.24
3122 H 71.94854862612324 38.51245945923256 15.259933163001165 H 0.0 **** 0.06
3123 H 72.01774437771249 40.06085266369843 14.38442535009483 H 0.0 **** 0.06
3124 H 72.46450570345525 39.9902674513703 16.10661627459112 H 0.0 **** 0.06
3125 H 70.76424417728964 39.791728020353105 15.62016145190944 H 0.0 **** 0.06
3126 C 93.77673688132032 120.68085435526186 66.62991742315828 C 0.0 **** -0.24
3127 H 94.48609448248098 120.64726271279474 67.45681468218963 H 0.0 **** 0.06
3128 H 94.30800026812855 120.90337788628392 65.70426512080554 H 0.0 **** 0.06
3129 H 93.03510095765435 121.45729165157383 66.81899935085804 H 0.0 **** 0.06
3130 H 93.27821716523158 119.71633976468169 66.53982106266463 H 0.0 **** 0.06
3131 C 75.31938151355769 199.0509618819391 24.619393146215828 C 0.0 **** -0.24
3132 H 75.50283281263077 200.08274028513907 24.319010660997222 H 0.0 **** 0.06
3133 H 74.8573504755655 198.50911960213614 23.792904192663315 H 0.0 **** 0.06
3134 H 74.65285196874298 199.03666885571835 25.481389517836504 H 0.0 **** 0.06
3135 H 76.26447758948963 198.57608718049562 24.881942375183428 H 0.0 **** 0.06
3136 C 95.07341899352701 26.39206404946924 58.53392081265878 C 0.0 **** -0.24
3137 H 94.87016849480256 27.379159558413505 58.12027562104879 H 0.0 **** 0.06
3138 H 94.238702066406 26.084270691304795 59.165144720754256 H 0.0 **** 0.06
3139 H 95.98501744657821 26.428602078495658 59.130316582013904 H 0.0 **** 0.06
3140 H 95.1979992013139 25.675695233693517 57.72153409048457 H 0.0 **** 0.06
3141 C 174.61193703785207 83.01952933723334 8.910222747696764 C 0.0 **** -0.24
3142 H 175.2391761303696 82.16241527191929 8.665269116125955 H 0.0 **** 0.06
3143 H 174.4366819117335 83.045615797453 9.985616542827415 H 0.0 **** 0.06
3144 H 173.65793381677784 82.93227715153165 8.388901711240976 H 0.0 **** 0.06
3145 H 175.1131514792604 83.93605978034614 8.599966885631488 H 0.0 **** 0.06
3146 C 151.98406924031337 67.91968618454348 140.87975529857457 C 0.0 **** -0.24
3147 H 152.27914314726658 67.62168846869167 139.87331332402783 H 0.0 **** 0.06
3148 H 151.83199243549058 68.99874133609188 140.9095431077655 H 0.0 **** 0.06
3149 H 152.76633461545555 67.64194956084907 141.58504240221185 H 0.0 **** 0.06
3150 H 151.0557626641866 67.41465050011442 141.15023187966764 H 0.0 **** 0.06
3151 C 121.31633099141573 94.6513165774212 135.91633849311728 C 0.0 **** -0.24
3152 H 121.86478252623135 94.69129591653132 134.97585711488185 H 0.0 **** 0.06
3153 H 120.25867400350566 94.4803293909639 135.71300432362452 H 0.0 **** 0.06
3154 H 121.4361319462152 95.59506033702087 136.44830101748022 H 0.0 **** 0.06
3155 H 121.70536243842176 93.83722893308311 136.52800795086137 H 0.0 **** 0.06
3156 C 134.59284982409767 80.58478844210964 124.85161568625881 C 0.0 **** -0.24
3157 H 134.0422132736587 80.54111394111817 125.79208293274206 H 0.0 **** 0.06
3158 H 134.16427531246381 79.87230566050027 124.1459848476162 H 0.0 **** 0.06
3159 H 135.6384148707659 80.33371407849461 125.03178808292995 H 0.0 **** 0.06
3160 H 134.52612722810554 81.59084786336132 124.43934370633451 H 0.0 **** 0.06
3161 C 19.264910189898558 85.41959117936761 45.48764841300732 C 0.0 **** -0.24
3162 H 19.36296114509294 84.37570590406432 45.786494921622136 H 0.0 **** 0.06
3163 H 18.329407131326192 85.82168517555402 45.87535720537508 H 0.0 **** 0.06
3164 H 19.26537973133466 85.48693455467358 44.399157090757825 H 0.0 **** 0.06
3165 H 20.101975006361855 85.99180956784451 45.88757876976587 H 0.0 **** 0.06
3166 C 49.88730772918913 102.85936321481392 147.78286558956222 C 0.0 **** -0.24
3167 H 49.95144836859669 103.51502558104573 148.65125002179383 H 0.0 **** 0.06
3168 H 49.33723062396376 101.95621758596053 148.04864341191671 H 0.0 **** 0.06
3169 H 50.89236876668829 102.58996321577928 147.45727436209074 H 0.0 **** 0.06
3170 H 49.370358174871996 103.37580255202943 146.97456352088182 H 0.0 **** 0.06
3171 C 155.58451474243276 163.0774551011895 11.766445347577644 C 0.0 **** -0.24
3172 H 155.07810020080024 162.23846078523422 11.288733570051122 H 0.0 **** 0.06
3173 H 154.86219951056384 163.86503815228468 11.979154792170839 H 0.0 **** 0.06
3174 H 156.35687697630863 163.4614453902298 11.099376581440168 H 0.0 **** 0.06
3175 H 156.04184642181067 162.74253080184235 12.697263333779333 H 0.0 **** 0.06
3176 C 14.834539017590487 23.10391256533751 155.69225392292003 C 0.0 **** -0.24
3177 H 15.359489391246655 22.869627014143532 156.61796610982134 H 0.0 **** 0.06
3178 H 15.286375667089999 23.980867111950346 155.22982444195938 H 0.0 **** 0.06
3179 H 13.785712335440394 23.30651437873587 155.91073228298865 H 0.0 **** 0.06
3180 H 14.905750493689425 22.25514272776249 155.01075967493955 H 0.0 **** 0.06
3181 C 24.503371911737204 6.967674754768211 190.7703314323295 C 0.0 **** -0.24
3182 H 23.794797745771717 7.131751830289716 189.9586165549624 H 0.0 **** 0.06
3183 H 25.496231220901564 6.790511039094611 190.3553650247228 H 0.0 **** 0.06
3184 H 24.193341616719124 6.1009069584738995 191.3533567053526 H 0.0 **** 0.06
3185 H 24.528293195966796 7.84757663967784 191.41342263240477 H 0.0 **** 0.06
3186 C 35.92515658263733 29.62921888001199 131.99207897360134 C 0.0 **** -0.24
3187 H 35.87795252162789 29.63496022654101 130.90266696842207 H 0.0 **** 0.06
3188 H 36.643284217369626 28.878075601898047 132.32049966635253 H 0.0 **** 0.06
3189 H 34.9407865938565 29.3922933005025 132.39556958491164 H 0.0 **** 0.06
3190 H 36.23627003430832 30.611226488804107 132.34667188397958 H 0.0 **** 0.06
3191 C 173.07705398106663 144.95520603760218 19.13176923960222 C 0.0 **** -0.24
3192 H 173.14224250884735 143.9786859823845 18.651488354319667 H 0.0 **** 0.06
3193 H 173.46358337037108 144.8856288955818 20.14853112604999 H 0.0 **** 0.06
3194 H 172.03549395335529 145.2769595639256 19.159663360336708 H 0.0 **** 0.06
3195 H 173.66532374990882 145.67800428738414 18.567020590032 H 0.0 **** 0.06
3196 C 31.99590466268772 11.953269975789553 147.2481483730084 C 0.0 **** -0.24
3197 H 32.802006070555265 12.667122407829844 147.41797449145832 H 0.0 **** 0.06
3198 H 31.0847355823404 12.489732677624119 146.98204618462444 H 0.0 **** 0.06
3199 H 31.8248614693769 11.375241678462778 148.156574598322 H 0.0 **** 0.06
3200 H 32.27083587333405 11.280403525652368 146.43652023780209 H 0.0 **** 0.06
3201 C 193.06717022065178 22.566783645859772 16.682228685239664 C 0.0 **** -0.24
3202 H 193.1263673203467 21.919292544947723 17.557142773929485 H 0.0 **** 0.06
3203 H 193.24728641428288 21.978936749668236 15.781850498920704 H 0.0 **** 0.06
3204 H 193.8187678873392 23.35290777727363 16.760513419285772 H 0.0 **** 0.06
3205 H 192.07581266834433 23.0171031145006 16.63016847019965 H 0.0 **** 0.06
3206 C 147.66022061005413 59.13587134522459 117.46699906912502 C 0.0 **** -0.24
3207 H 147.49633951025373 59.78223545818628 118.32959057964803 H 0.0 **** 0.06
3208 H 147.6484322234985 59.73704120001503 116.55693557804466 H 0.0 **** 0.06
3209 H 146.8704160681184 58.387157428523324 117.41862646759748 H 0.0 **** 0.06
3210 H 148.6263931340926 58.640395139316865 117.56399737750735 H 0.0 **** 0.06
3211 C 54.83965210527322 197.41681315134454 107.98332590489844 C 0.0 **** -0.24
3212 H 54.21664870015343 196.60598107823014 107.60483838253282 H 0.0 **** 0.06
3213 H 55.22942759488819 197.14741811175975 108.96520831805083 H 0.0 **** 0.06
3214 H 54.24117286027098 198.32442683587493 108.06607063334354 H 0.0 **** 0.06
3215 H 55.66898811160138 197.58893359828465 107.29755333752712 H 0.0 **** 0.06
3216 C 11.447358484575808 147.42139282667625 173.7469078123668 C 0.0 **** -0.24
3217 H 10.671345391703248 147.92816948767532 173.17220197116907 H 0.0 **** 0.06
3218 H 11.582191046001562 147.92986310828212 174.70171556340148 H 0.0 **** 0.06
3219 H 12.383093759482861 147.43964461655662 173.18953628703488 H 0.0 **** 0.06
3220 H 11.14986480820194 146.38763165311298 173.9247196386699 H 0.0 **** 0.06
3221 C 138.20149769356556 134.25690137070373 104.45253931909204 C 0.0 **** -0.24
3222 H 138.33206660987443 135.3385747212631 104.49145221463525 H 0.0 **** 0.06
3223 H 139.10689940420065 133.76801368945468 104.81133765633973 H 0.0 **** 0.06
3224 H 138.00518318179456 133.95180509670675 103.42417917741238 H 0.0 **** 0.06
3225 H 137.35942250857914 133.97123428403034 105.08343027171696 H 0.0 **** 0.06
3226 C 1.5685600462591651 187.4290853415328 24.871632750285613 C 0.0 **** -0.24
3227 H 0.8090080325872293 187.76463290936624 24.165550425234414 H 0.0 **** 0.06
3228 H 1.4685135128006834 187.98504412512972 25.80418367030927 H 0.0 **** 0.06
3229 H 2.5581582072777564 187.6013137894917 24.4491028570107 H 0.0 **** 0.06
3230 H 1.4370207724667807 186.36412485382056 25.0673373666844 H 0.0 **** 0.06
3231 C 13.12823061652881 52.94259982379748 170.29643887897677 C 0.0 **** -0.24
3232 H 12.190464670279653 53.4029796827333 170.6082579103512 H 0.0 **** 0.06
3233 H 13.943423968745833 53.33228322167548 170.9061054517183 H 0.0 **** 0.06
3234 H 13.315452923679828 53.17357391649415 169.24754304575484 H 0.0 **** 0.06
3235 H 13.062005900501845 51.86197856254853 170.42443758174264 H 0.0 **** 0.06
3236 C 150.94405503037387 134.96187571918193 163.72099137747958 C 0.0 **** -0.24
3237 H 151.5471780846375 135.00984538758297 162.81466408484192 H 0.0 **** 0.06
3238 H 149.96870683938675 134.5365130692992 163.48568903154404 H 0.0 **** 0.06
3239 H 150.81452645880313 135.96703451488827 164.12429382360332 H 0.0 **** 0.06
3240 H 151.44631776232922 134.33603305903637 164.45911251224967 H 0.0 **** 0.06
3241 C 97.97610731511224 0.2251484469392082 35.94362077954341 C 0.0 **** -0.24
3242 H 97.76197759356378 0.431387512908465 36.99259866594231 H 0.0 **** 0.06
3243 H 98.59886195024143 -0.6669080967187284 35.86957693704663 H 0.0 **** 0.06
3244 H 98.50233347833554 1.072886660489317 35.50666243568158 H 0.0 **** 0.06
3245 H 97.04150372512379 0.061201821019430724 35.406999571824414 H 0.0 **** 0.06
3246 C 169.36504551971274 68.59722062853876 158.384052760764 C 0.0 **** -0.24
3247 H 169.25337770880796 67.59576112937086 158.80011749428834 H 0.0 **** 0.06
3248 H 169.70903088942143 68.52659650058112 157.3531730706715 H 0.0 **** 0.06
3249 H 170.0935442102478 69.15465187303896 158.97373298834682 H 0.0 **** 0.06
3250 H 168.40403579384824 69.11103688416341 158.41346111457975 H 0.0 **** 0.06
3251 C 47.966937351889385 83.091409206816 34.395354022876404 C 0.0 **** -0.24
3252 H 47.09427244309728 83.24778678537766 33.76108460346296 H 0.0 **** 0.06
3253 H 48.5452830294293 82.2489782895737 34.01486469646494 H 0.0 **** 0.06
3254 H 47.64128409631394 82.87855670764708 35.413879165944365 H 0.0 **** 0.06
3255 H 48.58499480315069 83.98891106180432 34.39098629327492 H 0.0 **** 0.06
3256 C 51.26126839844494 177.61535456035045 171.68177487335572 C 0.0 **** -0.24
3257 H 51.0312948643882 178.54478485572454 171.16164876961153 H 0.0 **** 0.06
3258 H 52.34229878767303 177.48339124388667 171.72688210597192 H 0.0 **** 0.06
3259 H 50.815003246668994 176.77826793741272 171.1434997440163 H 0.0 **** 0.06
3260 H 50.856212087672645 177.65419985735758 172.69276008640787 H 0.0 **** 0.06
3261 C 133.88699753680623 49.39173543596573 68.55795691321526 C 0.0 **** -0.24
3262 H 133.61731086174308 50.43038191922534 68.36731259186621 H 0.0 **** 0.06
3263 H 134.02309949004768 49.24268527867537 69.62974468176316 H 0.0 **** 0.06
3264 H 134.81568493040925 49.15678211749287 68.03787581721292 H 0.0 **** 0.06
3265 H 133.09348518388708 48.737756021833235 68.1970694751783 H 0.0 **** 0.06
3266 C 161.38364484094512 19.022190252467794 19.616280211152613 C 0.0 **** -0.24
3267 H 161.1913476944734 18.309024839725623 18.814806206312184 H 0.0 **** 0.06
3268 H 162.2743720247788 18.71769965667005 20.166322259862966 H 0.0 **** 0.06
3269 H 160.52895339713717 19.04580409933871 20.293187612095338 H 0.0 **** 0.06
3270 H 161.5389307938164 20.013571008955637 19.191787419551773 H 0.0 **** 0.06
3271 C 167.85427983685756 36.05541025082242 77.74731123785425 C 0.0 **** -0.24
3272 H 168.68377747245552 36.750076285643146 77.61585991335897 H 0.0 **** 0.06
3273 H 168.18716497700808 35.19784598924913 78.33174232557633 H 0.0 **** 0.06
3274 H 167.50535816288556 35.717650369814336 76.77115929092948 H 0.0 **** 0.06
3275 H 167.03992364750698 36.55782450097293 78.27014449883475 H 0.0 **** 0.06
3276 C 154.96990484234368 140.38244983626348 196.38017210563228 C 0.0 **** -0.24
3277 H 155.92824035091866 140.10026596597336 196.8162638402839 H 0.0 **** 0.06
3278 H 154.16670239538797 139.85563331391793 196.89473293689088 H 0.0 **** 0.06
3279 H 154.9607351197616 140.11744070413687 195.3221282528179 H 0.0 **** 0.06
3280 H 154.82602426769466 141.45781256082074 196.48621020527952 H 0.0 **** 0.06
3281 C 35.69714663658711 112.1391525171845 178.34533182785967 C 0.0 **** -0.24
3282 H 36.207890727403566 111.70553465563424 177.4857809580833 H 0.0 **** 0.06
3283 H 36.298869062724194 112.94981283884036 178.75477000473626 H 0.0 **** 0.06
3284 H 35.55157316386659 111.37244009117373 179.10666428768087 H 0.0 **** 0.06
3285 H 34.72710795715629 112.52753711013165 178.0325458239845 H 0.0 **** 0.06
3286 C 180.38855012680062 183.30469480577221 47.44587055811107 C 0.0 **** -0.24
3287 H 180.2658741467218 184.36365947476395 47.21977521390903 H 0.0 **** 0.06
3288 H 180.03193464928034 183.10545616647087 48.45654164852033 H 0.0 **** 0.06
3289 H 181.44302582449515 183.03843061580386 47.37318585291007 H 0.0 **** 0.06
3290 H 179.81490816878096 182.71200344339223 46.73414623697323 H 0.0 **** 0.06
3291 C 166.878060408943 118.97666958330797 141.11522533127683 C 0.0 **** -0.24
3292 H 167.5210976376336 119.11902984646832 141.98505945882593 H 0.0 **** 0.06
3293 H 165.85241169251017 119.2391618961201 141.37684567543874 H 0.0 **** 0.06
3294 H 166.91824799471584 117.93374217409911 140.80133991641074 H 0.0 **** 0.06
3295 H 167.22051438143882 119.61488017260757 140.30139538778798 H 0.0 **** 0.06
3296 C 23.36335392966714 185.2553096071112 59.3026081235854 C 0.0 **** -0.24
3297 H 22.733239871074986 186.0717314379876 59.65358863713652 H 0.0 **** 0.06
3298 H 24.360373348189157 185.63550707718412 59.081515763432435 H 0.0 **** 0.06
3299 H 22.93052803881126 184.82360956113632 58.40008249837433 H 0.0 **** 0.06
3300 H 23.429220162857675 184.48939275934575 60.07528897737802 H 0.0 **** 0.06
3301 C 158.62864885770747 49.149402811116914 175.40781128889648 C 0.0 **** -0.24
3302 H 158.59634934539127 49.166746769949555 174.3188399433204 H 0.0 **** 0.06
3303 H 157.73355346446738 48.6590873745549 175.78988808861277 H 0.0 **** 0.06
3304 H 158.67416674121472 50.1709793894662 175.78604945895358 H 0.0 **** 0.06
3305 H 159.51249860698857 48.60136195262271 175.7355787967809 H 0.0 **** 0.06
3306 C 106.01198245104362 116.5065890894673 52.420765059231655 C 0.0 **** -0.24
3307 H 105.98159662079777 117.5006440448654 51.97367765418312 H 0.0 **** 0.06
3308 H 106.95972534886374 116.02763739094837 52.17674183891006 H 0.0 **** 0.06
3309 H 105.18973266355641 115.90794563381894 52.03001326862716 H 0.0 **** 0.06
3310 H 105.91583202979356 116.59204535120551 53.50311805373951 H 0.0 **** 0.06
3311 C 161.45679326897823 151.77800011646053 26.160232974509853 C 0.0 **** -0.24
3312 H 162.22285642065992 151.86208750098817 25.389033743413506 H 0.0 **** 0.06
3313 H 160.78096206636076 152.63125425775226 26.09516948097513 H 0.0 **** 0.06
3314 H 161.93146733451977 151.76367646579007 27.141802160174848 H 0.0 **** 0.06
3315 H 160.89513991926827 150.85605653902752 26.01441045641144 H 0.0 **** 0.06
3316 C 150.77720215483026 0.19475272727999027 167.52084820960846 C 0.0 **** -0.24
3317 H 150.3338420936595 0.6977055648618773 168.37968169785336 H 0.0 **** 0.06
3318 H 151.8542763590923 0.11359397322527798 167.6636630380121 H 0.0 **** 0.06
3319 H 150.5717939018266 0.7690670894077982 166.61761560384042 H 0.0 **** 0.06
3320 H 150.34739809674974 -0.8028027712765606 167.4232459104615 H 0.0 **** 0.06
3321 C 141.79517432181285 196.70137012208406 15.508964545864359 C 0.0 **** -0.24
3322 H 140.81986822786286 196.7947599106983 15.986183618964901 H 0.0 **** 0.06
3323 H 142.4728513048408 196.15861498304898 16.16814544166448 H 0.0 **** 0.06
3324 H 142.1987815228749 197.69411411733392 15.310099599270785 H 0.0 **** 0.06
3325 H 141.68913851006283 196.15763924111897 14.56922210288954 H 0.0 **** 0.06
3326 C 20.676767957652885 73.43793464016588 110.7538663992689 C 0.0 **** -0.24
3327 H 19.666524180572253 73.7997758181559 110.56141337901656 H 0.0 **** 0.06
3328 H 21.21295043156198 73.3375111906608 109.80933572075543 H 0.0 **** 0.06
3329 H 20.627286859402886 72.46722058633334 111.24776470986478 H 0.0 **** 0.06
3330 H 21.200145030604915 74.14684719255703 111.3960432686269 H 0.0 **** 0.06
3331 C 41.51538665338798 126.7164621618104 67.99088846656858 C 0.0 **** -0.24
3332 H 40.73103323254996 127.24068888205053 68.5362871519076 H 0.0 **** 0.06
3333 H 42.196143124353426 126.2428857124024 68.69805651548248 H 0.0 **** 0.06
3334 H 42.067074230811045 127.42739207360401 67.37552583581919 H 0.0 **** 0.06
3335 H 41.06670398194572 125.95451851325186 67.35245252712662 H 0.0 **** 0.06
3336 C 155.58666496245837 177.48820264837326 59.742884748051154 C 0.0 **** -0.24
3337 H 155.90579094943465 176.92023237870208 58.86895565407286 H 0.0 **** 0.06
3338 H 155.76641278012724 178.5489833235363 59.571287137394506 H 0.0 **** 0.06
3339 H 156.15241127936744 177.15906140933612 60.61474760517558 H 0.0 **** 0.06
3340 H 154.52328822996145 177.3222363550812 59.91507299856522 H 0.0 **** 0.06
3341 C 174.54340750401485 46.63113523191532 163.0485396044199 C 0.0 **** -0.24
3342 H 173.9732877776713 46.70300749837696 163.97512288263775 H 0.0 **** 0.06
3343 H 174.13603005210848 45.828186111176535 162.43342414857403 H 0.0 **** 0.06
3344 H 175.58713803995752 46.41738448898968 163.28080860845193 H 0.0 **** 0.06
3345 H 174.4772350632415 47.57374421085672 162.50705538501813 H 0.0 **** 0.06
3346 C 71.49573379884566 137.56894997011747 21.71470909396487 C 0.0 **** -0.24
3347 H 72.55833658053689 137.4098285827023 21.53277948491683 H 0.0 **** 0.06
3348 H 71.2094350355552 137.07942909036777 22.645810602067797 H 0.0 **** 0.06
3349 H 70.92007283813541 137.1481913581014 20.89026544417527 H 0.0 **** 0.06
3350 H 71.29645306163525 138.63753077013294 21.789294100262282 H 0.0 **** 0.06
3351 C 21.09676063912093 130.65984927410557 86.73953519287508 C 0.0 **** -0.24
3352 H 20.69556956083818 130.73128199652527 85.72850662251048 H 0.0 **** 0.06
3353 H 20.720764499805625 129.75389789565668 87.2152480184221 H 0.0 **** 0.06
3354 H 20.78531823975635 131.53026885430648 87.31644857860925 H 0.0 **** 0.06
3355 H 22.18498069067911 130.6229490072151 86.69702452756488 H 0.0 **** 0.06
3356 C 110.81144869272322 161.4256937340342 67.00349682245644 C 0.0 **** -0.24
3357 H 111.08397919949343 161.3437956119401 65.95166818337952 H 0.0 **** 0.06
3358 H 111.54950022130689 160.90311069548784 67.6118779429903 H 0.0 **** 0.06
3359 H 109.82936940303091 160.9805582971124 67.1601409209054 H 0.0 **** 0.06
3360 H 110.78313666249312 162.47695001882943 67.2908247597129 H 0.0 **** 0.06
3361 C 173.44012088272288 95.42010649789358 96.78054514606166 C 0.0 **** -0.24
3362 H 173.03207942181865 95.73434145634906 97.74134129780538 H 0.0 **** 0.06
3363 H 172.70041972803105 94.82004441649082 96.25106675061087 H 0.0 **** 0.06
3364 H 174.3396262070728 94.82798863677783 96.94460080879122 H 0.0 **** 0.06
3365 H 173.6877200224407 96.30044836000866 96.18737353902395 H 0.0 **** 0.06
3366 C 105.63723417771968 17.062983007481762 68.0519996285559 C 0.0 **** -0.24
3367 H 106.43149596738067 17.72404480009999 68.39844037855892 H 0.0 **** 0.06
3368 H 105.03720484259006 16.739270897497477 68.90320875493194 H 0.0 **** 0.06
3369 H 106.0758115627398 16.193218193085414 67.56430433767844 H 0.0 **** 0.06
3370 H 105.00397678598307 17.59699336506867 67.34255003459896 H 0.0 **** 0.06
3371 C 179.8912906087001 28.473183122418703 48.09263747481235 C 0.0 **** -0.24
3372 H 180.36123770463126 29.132570007916286 48.82207995815075 H 0.0 **** 0.06
3373 H 180.58012214612762 27.668912729858675 47.833471621013885 H 0.0 **** 0.06
3374 H 179.64209849876127 29.040751572050738 47.196221821809104 H 0.0 **** 0.06
3375 H 178.98153836203116 28.049175826138992 48.51830325446642 H 0.0 **** 0.06
3376 C 4.050819763071729 187.84205323820626 98.6698823692875 C 0.0 **** -0.24
3377 H 3.6228247333704076 188.15939919514386 99.62081532264779 H 0.0 **** 0.06
3378 H 5.116502881293741 187.65494813848974 98.79547225768778 H 0.0 **** 0.06
3379 H 3.903923812198059 188.62556546977942 97.92616881203028 H 0.0 **** 0.06
3380 H 3.5578130870884763 186.9282489282676 98.33737854253127 H 0.0 **** 0.06
3381 C 81.50304673161438 173.29086668354225 89.55495113381858 C 0.0 **** -0.24
3382 H 81.4529243189096 173.60556246033985 88.5126551152373 H 0.0 **** 0.06
3383 H 81.07502712908749 172.29288057419518 89.65393924734201 H 0.0 **** 0.06
3384 H 80.93939738268259 173.99041508364223 90.17371293719094 H 0.0 **** 0.06
3385 H 82.54268906519965 173.2742103756324 89.87996965509893 H 0.0 **** 0.06
3386 C 112.00187997810892 102.11527257073956 77.6742594650053 C 0.0 **** -0.24
3387 H 111.14372282972408 101.87160979548517 78.3012574401985 H 0.0 **** 0.06
3388 H 111.66952649072829 102.27099216408925 76.64780476330455 H 0.0 **** 0.06
3389 H 112.71832195033696 101.29322171120646 77.70341432930189 H 0.0 **** 0.06
3390 H 112.47583601495236 103.0232932027109 78.04560683110883 H 0.0 **** 0.06
3391 C 142.32277394977154 114.27400736196475 119.93618551146497 C 0.0 **** -0.24
3392 H 141.32415429479352 114.28192143358524 120.37388272572093 H 0.0 **** 0.06
3393 H 142.24882537499303 114.08048471939918 118.86593307255032 H 0.0 **** 0.06
3394 H 142.91865679610282 113.49267199702405 120.40755092766588 H 0.0 **** 0.06
3395 H 142.7979819468536 115.2418505314804 120.09961337296164 H 0.0 **** 0.06
3396 C 10.164898081850083 137.76230490413104 191.58661924703176 C 0.0 **** -0.24
3397 H 9.75375302027436 137.03124478277363 192.28157930639455 H 0.0 **** 0.06
3398 H 10.98111108487916 137.30970502303893 191.02358784237595 H 0.0 **** 0.06
3399 H 10.539400038337874 138.62244807127684 192.14226186131782 H 0.0 **** 0.06
3400 H 9.384764037431125 138.08682948813515 190.8982317522476 H 0.0 **** 0.06
3401 C 84.91570506577051 159.09664273021986 162.6278908372807 C 0.0 **** -0.24
3402 H 84.03283391407146 159.11284508905118 163.26755849522323 H 0.0 **** 0.06
3403 H 84.60853730488503 158.98958130416537 161.58797666710757 H 0.0 **** 0.06
3404 H 85.55098874114037 158.2567974488516 162.90865627317748 H 0.0 **** 0.06
3405 H 85.46883046418532 160.02802208821277 162.74979847132985 H 0.0 **** 0.06
3406 C 28.797056102270105 128.24737741890584 169.5402372163963 C 0.0 **** -0.24
3407 H 29.82137513544737 128.0938493930771 169.20167210997266 H 0.0 **** 0.06
3408 H 28.15729456241371 128.44685254043856 168.68003808227087 H 0.0 **** 0.06
3409 H 28.76344570935035 129.09488201837772 170.2241443420515 H 0.0 **** 0.06
3410 H 28.44709474584795 127.35155214075883 170.05354687943685 H 0.0 **** 0.06
3411 C 124.88753144017292 62.54373896529458 6.974637162730964 C 0.0 **** -0.24
3412 H 125.77131965067596 61.9122210415712 7.06832924191216 H 0.0 **** 0.06
3413 H 125.19562648614593 63.57834009606623 6.818603002851212 H 0.0 **** 0.06
3414 H 124.2937762706716 62.47531744264286 7.8869857851252405 H 0.0 **** 0.06
3415 H 124.29010904331665 62.21001178219207 6.126535566407668 H 0.0 **** 0.06
3416 C 111.30956000156226 94.69965816004208 157.29165812802668 C 0.0 **** -0.24
3417 H 111.01314770754655 94.39585842652502 158.29492934064092 H 0.0 **** 0.06
3418 H 112.03580463402128 95.51034057582183 157.35676153518918 H 0.0 **** 0.06
3419 H 110.43276639376157 95.04104049738424 156.7411867334211 H 0.0 **** 0.06
3420 H 111.75688719974016 93.85178718841405 156.7721084256644 H 0.0 **** 0.06
3421 C 76.50568989725942 14.333101777555932 167.749383870059 C 0.0 **** -0.24
3422 H 76.8348623862972 15.25897038712499 167.27781153233929 H 0.0 **** 0.06
3423 H 75.4172738095544 14.327197460531352 167.8160041632118 H 0.0 **** 0.06
3424 H 76.93200195330519 14.263264609452875 168.74930409070186 H 0.0 **** 0.06
3425 H 76.83771891886039 13.483166996007135 167.15214664358263 H 0.0 **** 0.06
3426 C 120.10481383869046 36.93834712454003 113.80277312813305 C 0.0 **** -0.24
3427 H 120.48118075020517 37.748889496023864 113.1795142154472 H 0.0 **** 0.06
3428 H 119.02459273199679 36.855625811312535 113.67866732897065 H 0.0 **** 0.06
3429 H 120.33588993993988 37.14503427233133 114.84690525691036 H 0.0 **** 0.06
3430 H 120.57739696906737 36.00199267328877 113.50475932605335 H 0.0 **** 0.06
3431 C 163.12230564494968 194.945224014361 34.7844540123353 C 0.0 **** -0.24
3432 H 163.33233861663075 196.0095888582377 34.88842663207993 H 0.0 **** 0.06
3433 H 163.87161687067652 194.37256131661115 35.33144835871863 H 0.0 **** 0.06
3434 H 163.15332435057906 194.67048742378844 33.72998858702731 H 0.0 **** 0.06
3435 H 162.13277246478316 194.72808744180796 35.18742111969161 H 0.0 **** 0.06
3436 C 142.63716041577015 18.492481090389447 152.06052796933122 C 0.0 **** -0.24
3437 H 142.24066823632802 18.3675519347654 153.06891944781052 H 0.0 **** 0.06
3438 H 142.01726417436802 17.937977254374687 151.35576074858758 H 0.0 **** 0.06
3439 H 143.65843286949507 18.114812980413035 152.0226857464478 H 0.0 **** 0.06
3440 H 142.63118999961458 19.55007353329239 151.79688567390718 H 0.0 **** 0.06
3441 C 144.80706574499422 130.7799154416602 91.6634941167051 C 0.0 **** -0.24
3442 H 144.7853034814135 130.74690851315498 90.57469863274159 H 0.0 **** 0.06
3443 H 145.44531011075827 129.98010566328546 92.03841960251816 H 0.0 **** 0.06
3444 H 143.79595492663222 130.64952192428868 92.05061961312711 H 0.0 **** 0.06
3445 H 145.19903403074002 131.7424266335123 91.99089712929194 H 0.0 **** 0.06
3446 C 155.1286081707757 24.856202336334547 63.965376640592 C 0.0 **** -0.24
3447 H 156.2128170289531 24.969528155869455 63.98264234781357 H 0.0 **** 0.06
3448 H 154.72611547807605 25.346705869125145 63.07916131903821 H 0.0 **** 0.06
3449 H 154.70156489795548 25.311257106981174 64.85906052284011 H 0.0 **** 0.06
3450 H 154.87500741057727 23.79679331606394 63.941400698496224 H 0.0 **** 0.06
3451 C 8.319568154715903 180.48073125395743 78.43600039314288 C 0.0 **** -0.24
3452 H 8.655149696741063 181.27924055976607 77.77408075655154 H 0.0 **** 0.06
3453 H 8.43539894381967 179.52044628045758 77.93338156919073 H 0.0 **** 0.06
3454 H 7.2694059549539105 180.63558292146027 78.68599444077188 H 0.0 **** 0.06
3455 H 8.915295253563855 180.48994831708754 79.34778705321474 H 0.0 **** 0.06
3456 C 95.49499346534375 151.44442208796346 166.05586166964167 C 0.0 **** -0.24
3457 H 95.9765243494304 152.16103953075233 165.3904947549225 H 0.0 **** 0.06
3458 H 95.8888801934107 151.56501605794287 167.06548043037475 H 0.0 **** 0.06
3459 H 95.69616305099441 150.43200750288722 165.70572999894532 H 0.0 **** 0.06
3460 H 94.41944973477567 151.6205702802273 166.06187624091393 H 0.0 **** 0.06
3461 C 99.51065848625001 152.51439668574608 109.5287044738352 C 0.0 **** -0.24
3462 H 98.60572818636368 153.116652331048 109.6126269637029 H 0.0 **** 0.06
3463 H 99.67695827254266 151.97648620812572 110.46231327459748 H 0.0 **** 0.06
3464 H 100.36181455933689 153.16419636396785 109.32721903395927 H 0.0 **** 0.06
3465 H 99.39722705615281 151.80067532048028 108.71264944621214 H 0.0 **** 0.06
3466 C 11.336278265139185 48.414126437648406 62.90781463623743 C 0.0 **** -0.24
3467 H 10.77286180307857 48.14217170916399 63.800048453569175 H 0.0 **** 0.06
3468 H 11.126090984079212 47.696498436710186 62.11413834022473 H 0.0 **** 0.06
3469 H 12.402617654230056 48.40452599526722 63.13396243239593 H 0.0 **** 0.06
3470 H 11.043490554474914 49.412385034503416 62.58273186406275 H 0.0 **** 0.06
3471 C 62.84617337773349 124.72586358043645 46.916931210532624 C 0.0 **** -0.24
3472 H 61.89278875909048 124.94814476113424 46.438667155803174 H 0.0 **** 0.06
3473 H 63.31910020246528 123.88335397365307 46.410832903856075 H 0.0 **** 0.06
3474 H 62.678033869412445 124.4739435406461 47.96394509717793 H 0.0 **** 0.06
3475 H 63.4968565755745 125.59863317461631 46.853155688478694 H 0.0 **** 0.06
3476 C 33.446576774986255 186.184641805188 195.55603029407223 C 0.0 **** -0.24
3477 H 34.34185971354586 185.5635064798479 195.59843397643982 H 0.0 **** 0.06
3478 H 33.377711661432315 186.78291046782726 196.46496148033964 H 0.0 **** 0.06
3479 H 32.56656264743128 185.5465069328851 195.47320692175077 H 0.0 **** 0.06
3480 H 33.50208131780947 186.8427273560642 194.68972243636534 H 0.0 **** 0.06
3481 C 11.067339190548182 198.8597606763176 104.77409175412362 C 0.0 **** -0.24
3482 H 11.700341804200946 198.07062331099075 104.36870109692592 H 0.0 **** 0.06
3483 H 11.658647342414667 199.49768872124133 105.43136960433861 H 0.0 **** 0.06
3484 H 10.247527533006831 198.41489028745792 105.33823523675184 H 0.0 **** 0.06
3485 H 10.66260079014205 199.45605448705703 103.95563269848466 H 0.0 **** 0.06
3486 C 94.32621579671579 137.299521016006 38.31048003769581 C 0.0 **** -0.24
3487 H 94.37179075480998 138.2823348841496 37.84244319773916 H 0.0 **** 0.06
3488 H 94.21259695387283 137.41541166177464 39.38811809808408 H 0.0 **** 0.06
3489 H 95.24526115028928 136.75340522151896 38.09814808861563 H 0.0 **** 0.06
3490 H 93.47517342509332 136.74751291359453 37.911921869886896 H 0.0 **** 0.06
3491 C 92.85637285942559 21.456458412758877 133.59033168315034 C 0.0 **** -0.24
3492 H 92.00109449690638 21.367761901300128 134.25918107134086 H 0.0 **** 0.06
3493 H 93.38974297434402 22.38302176571125 133.80451938732182 H 0.0 **** 0.06
3494 H 92.51010469659764 21.466655321986536 132.55716516683034 H 0.0 **** 0.06
3495 H 93.52558398878327 20.60921564469041 133.74226539431007 H 0.0 **** 0.06
3496 C 17.525189334827417 133.10384383528216 114.47805577924981 C 0.0 **** -0.24
3497 H 16.633509399286908 133.080562676059 115.10494059618216 H 0.0 **** 0.06
3498 H 18.40190521460832 132.87918167329465 115.08630152094827 H 0.0 **** 0.06
3499 H 17.632681537355722 134.09489237021256 114.0362119961828 H 0.0 **** 0.06
3500 H 17.4324727687017 132.36085095987613 113.6857446572443 H 0.0 **** 0.06
3501 C 169.73452903780915 58.239408854617366 99.82091630961756 C 0.0 **** -0.24
3502 H 170.27457807269926 59.12991138856661 100.14165131965717 H 0.0 **** 0.06
3503 H 170.09681616381044 57.37473864595286 100.37787965922232 H 0.0 **** 0.06
3504 H 169.89839096624286 58.07964311301775 98.75477378690567 H 0.0 **** 0.06
3505 H 168.66966099769402 58.37286279111349 100.00939381089066 H 0.0 **** 0.06
3506 C 164.24489367498705 184.42736921032713 170.40366573639488 C 0.0 **** -0.24
3507 H 163.34774265361597 184.1959216655527 170.97810090954687 H 0.0 **** 0.06
3508 H 164.0439246276651 185.26689240452123 169.73899445943812 H 0.0 **** 0.06
3509 H 164.53224047826671 183.55656488715155 169.8133578893393 H 0.0 **** 0.06
3510 H 165.0545820144722 184.68814914527775 171.084369251917 H 0.0 **** 0.06
3511 C 122.88096252202644 53.33013848062275 83.08699099580593 C 0.0 **** -0.24
3512 H 123.43103627680114 54.11923678353406 82.57359306941842 H 0.0 **** 0.06
3513 H 123.19651715622001 53.286216684530004 84.12870199217141 H 0.0 **** 0.06
3514 H 123.08364912177376 52.37422045952543 82.60381963265021 H 0.0 **** 0.06
3515 H 121.8130530820581 53.54253542160751 83.03796399855241 H 0.0 **** 0.06
3516 C 142.04723507559817 144.6369652034071 158.96168984571307 C 0.0 **** -0.24
3517 H 142.94731804418228 144.91860754149593 159.5074442854378 H 0.0 **** 0.06
3518 H 141.23509361658012 144.46228910493141 159.6667126629026 H 0.0 **** 0.06
3519 H 142.237304631833 143.7261720774694 158.39267564821313 H 0.0 **** 0.06
3520 H 141.77019803380438 145.44082866471615 158.27970326645462 H 0.0 **** 0.06
3521 C 93.63516609682802 45.645589497497326 160.33697122389222 C 0.0 **** -0.24
3522 H 93.4964802693919 46.05262953430177 161.3389763885138 H 0.0 **** 0.06
3523 H 92.9050729785792 46.090099640630854 159.66028853399678 H 0.0 **** 0.06
3524 H 93.49717658517048 44.56388407076284 160.3619308395655 H 0.0 **** 0.06
3525 H 94.64245018689749 45.87522800595106 159.98825985601 H 0.0 **** 0.06
3526 C 44.45258731763292 150.28987096614736 54.04978733443072 C 0.0 **** -0.24
3527 H 45.23848047159109 149.7818751443323 53.48971599498388 H 0.0 **** 0.06
3528 H 44.3957164652676 151.33132449851558 53.73171195264942 H 0.0 **** 0.06
3529 H 44.679569003939264 150.24698936887444 55.11517232192105 H 0.0 **** 0.06
3530 H 43.49726479732925 149.80022533988003 53.86091509072048 H 0.0 **** 0.06
3531 C 149.31869900590107 193.95998383519634 5.622933004981952 C 0.0 **** -0.24
3532 H 148.6128632694585 193.1366599771623 5.519785585727533 H 0.0 **** 0.06
3533 H 149.23482441458734 194.62017086191838 4.75867964973569 H 0.0 **** 0.06
3534 H 150.3327762145584 193.56450614739708 5.680548064422055 H 0.0 **** 0.06
3535 H 149.0937981053681 194.5196116519503 6.53055349935596 H 0.0 **** 0.06
3536 C 176.3978147553574 152.4203477336605 80.20944619559259 C 0.0 **** -0.24
3537 H 177.42787346585564 152.15203726491842 79.973411789078 H 0.0 **** 0.06
3538 H 176.10073988065835 153.28158907988166 79.61005019137951 H 0.0 **** 0.06
3539 H 176.3209881529514 152.66836120292754 81.2676903342873 H 0.0 **** 0.06
3540 H 175.74393856466438 151.57793389566962 79.98472519798963 H 0.0 **** 0.06
3541 C 143.98333642196891 24.536284603612955 176.43847441629214 C 0.0 **** -0.24
3542 H 143.96199770116445 25.55632696145682 176.82156307549582 H 0.0 **** 0.06
3543 H 143.5259045212218 24.509774482022948 175.44986481967055 H 0.0 **** 0.06
3544 H 143.4299830552268 23.883555353460793 177.11373085834686 H 0.0 **** 0.06
3545 H 145.01681162520543 24.196182195507845 176.37065816628922 H 0.0 **** 0.06
3546 C 23.621180462661528 47.03445940207126 68.53911436595686 C 0.0 **** -0.24
3547 H 24.21574955884705 46.312948580336524 69.09953956855702 H 0.0 **** 0.06
3548 H 23.382116464221667 47.883931350176795 69.1795365029082 H 0.0 **** 0.06
3549 H 22.69793957581942 46.56026311043837 68.20376401386937 H 0.0 **** 0.06
3550 H 24.18782618046481 47.378199593491445 67.67487715809852 H 0.0 **** 0.06
3551 C 123.38457245160953 82.54875035840803 91.85770717227842 C 0.0 **** -0.24
3552 H 122.79166020386333 82.13313867088138 92.67276403205304 H 0.0 **** 0.06
3553 H 124.43771612630837 82.31666087503805 92.0212051515071 H 0.0 **** 0.06
3554 H 123.25070551116369 83.62909783136959 91.82565067612106 H 0.0 **** 0.06
3555 H 123.05804228216562 82.11350707512793 90.91300561932039 H 0.0 **** 0.06
3556 C 15.380339581602385 6.066084293148144 120.55192677342302 C 0.0 **** -0.24
3557 H 15.092768072471458 6.7747647455297795 119.7753668446091 H 0.0 **** 0.06
3558 H 16.176573016751846 6.497435843388686 121.1600664594676 H 0.0 **** 0.06
3559 H 15.733915981751451 5.1450052664105925 120.09027451899661 H 0.0 **** 0.06
3560 H 14.51782942039992 5.849254943839888 121.18264457981678 H 0.0 **** 0.06
3561 C 169.81917260209224 51.58679890443915 74.13606522752363 C 0.0 **** -0.24
3562 H 170.25967817310485 51.841246940807565 75.10051208416449 H 0.0 **** 0.06
3563 H 169.14934477183618 52.38663439889959 73.8200517063066 H 0.0 **** 0.06
3564 H 169.2581978963289 50.65709903384942 74.22797931274249 H 0.0 **** 0.06
3565 H 170.609862398282 51.46196347080604 73.39660229285408 H 0.0 **** 0.06
3566 C 124.64687141875584 199.21470169995598 184.14522219874306 C 0.0 **** -0.24
3567 H 123.62764665338631 199.50016221722012 184.40726775191092 H 0.0 **** 0.06
3568 H 125.31583631134632 200.0590258682186 184.31818000129886 H 0.0 **** 0.06
3569 H 124.68498905696114 198.9295076347053 183.09383450842466 H 0.0 **** 0.06
3570 H 124.957439537857 198.3718746043545 184.76224861658866 H 0.0 **** 0.06
3571 C 26.882017475257015 30.15840056985286 116.58368188631351 C 0.0 **** -0.24
3572 H 26.443450662315854 30.552587802164396 115.66711096551808 H 0.0 **** 0.06
3573 H 27.051313083481034 29.087090973146132 116.47469367395544 H 0.0 **** 0.06
3574 H 26.202428565435525 30.33665091684952 117.41750466513167 H 0.0 **** 0.06
3575 H 27.831828070682207 30.658931176444355 116.77600624952672 H 0.0 **** 0.06
3576 C 97.28928083389272 174.74453034492151 113.90596359396176 C 0.0 **** -0.24
3577 H 97.13010543880048 173.66671452806477 113.89211001314436 H 0.0 **** 0.06
3578 H 97.70125175952208 175.0633172963774 112.94839922428179 H 0.0 **** 0.06
3579 H 97.98577089452291 174.99901087839982 114.70477078759788 H 0.0 **** 0.06
3580 H 96.33846914676545 175.24938068196988 114.07983129572708 H 0.0 **** 0.06
3581 C 88.8452379609731 40.480292368307914 154.74661957754432 C 0.0 **** -0.24
3582 H 88.52434254960619 39.456419175350845 154.55249456395273 H 0.0 **** 0.06
3583 H 88.01331783976707 41.04784593997934 155.16566918616087 H 0.0 **** 0.06
3584 H 89.168747983799 40.94217382153704 153.81450185790163 H 0.0 **** 0.06
3585 H 89.67299249115666 40.47222448938936 155.45611802070584 H 0.0 **** 0.06
3586 C 90.00722588505153 171.7273329917702 36.8563925725431 C 0.0 **** -0.24
3587 H 90.73761800955646 170.9605512012774 37.11367782707309 H 0.0 **** 0.06
3588 H 90.52534755507412 172.61509185968862 36.49281476254376 H 0.0 **** 0.06
3589 H 89.42294552553687 171.98297107470836 37.74077616066545 H 0.0 **** 0.06
3590 H 89.3429281456066 171.34922519173335 36.07917787121855 H 0.0 **** 0.06
3591 C 56.560884611037864 19.913146674751374 181.71303097145298 C 0.0 **** -0.24
3592 H 55.479692860144695 19.982927648923436 181.83811784452593 H 0.0 **** 0.06
3593 H 57.05530978028207 20.42888405798169 182.5357328421883 H 0.0 **** 0.06
3594 H 56.84673689504211 20.376466683162562 180.76830892735106 H 0.0 **** 0.06
3595 H 56.85906100746965 18.864751333573224 181.7088206718727 H 0.0 **** 0.06
3596 C 31.617603769624225 147.6269852249863 118.85428495674776 C 0.0 **** -0.24
3597 H 31.146099876005508 147.2464271141335 119.76057149720108 H 0.0 **** 0.06
3598 H 31.049814477816767 147.29856834914503 117.9837808750099 H 0.0 **** 0.06
3599 H 32.63752848316602 147.24778312814928 118.78871792288848 H 0.0 **** 0.06
3600 H 31.637590552061283 148.71665941462257 118.88524275473361 H 0.0 **** 0.06
3601 C 17.1228606516829 125.3356257099868 117.71765140116133 C 0.0 **** -0.24
3602 H 16.371760420517063 124.70374210039256 117.24404162396294 H 0.0 **** 0.06
3603 H 18.038714180699927 124.76315793707062 117.86685816750273 H 0.0 **** 0.06
3604 H 16.749956067417784 125.68324428994583 118.68135996066425 H 0.0 **** 0.06
3605 H 17.330707408173595 126.19406235389238 117.07828065270351 H 0.0 **** 0.06
3606 C 93.94635458591006 114.43321836371157 136.91564390805206 C 0.0 **** -0.24
3607 H 94.44702172800737 114.32744721437433 135.95293752957747 H 0.0 **** 0.06
3608 H 92.91756416411408 114.75955574436136 136.75606661210077 H 0.0 **** 0.06
3609 H 94.47233260463213 115.17388290468733 137.51838585386798 H 0.0 **** 0.06
3610 H 93.94754710212123 113.47492874482327 137.43333032668633 H 0.0 **** 0.06
3611 C 174.07525915391489 170.94512222327398 40.641948460692106 C 0.0 **** -0.24
3612 H 174.42418169118406 169.92486147038434 40.487362858404424 H 0.0 **** 0.06
3613 H 173.6084991055323 171.02482079929698 41.62332140683259 H 0.0 **** 0.06
3614 H 173.3477113071254 171.20072455761965 39.87142184504202 H 0.0 **** 0.06
3615 H 174.920578850791 171.63064505036334 40.58439205496845 H 0.0 **** 0.06
3616 C 181.4599285362011 27.95096664798207 197.49174874332618 C 0.0 **** -0.24
3617 H 180.45109061832568 27.540577615966598 197.4406841287779 H 0.0 **** 0.06
3618 H 181.4924304194635 28.742282616541246 198.24033029347186 H 0.0 **** 0.06
3619 H 181.73448860815967 28.35898767559931 196.5189531367041 H 0.0 **** 0.06
3620 H 182.15926056990213 27.161545902017636 197.76535293437564 H 0.0 **** 0.06
3621 C 128.3982394846475 60.25543562992627 44.801049589447416 C 0.0 **** -0.24
3622 H 127.57952439997831 59.900687040761625 45.428563549559 H 0.0 **** 0.06
3623 H 128.00395614357143 60.56252151063654 43.83210707198613 H 0.0 **** 0.06
3624 H 129.12369971355048 59.4542679354023 44.6620479689707 H 0.0 **** 0.06
3625 H 128.88296788409207 61.10482058468244 45.282820560723906 H 0.0 **** 0.06
3626 C 36.194445098242454 155.9101924976345 93.83621584323907 C 0.0 **** -0.24
3627 H 35.96898873270874 156.95269987167524 93.61077074401965 H 0.0 **** 0.06
3628 H 35.270013948725136 155.379771029836 94.06613063898214 H 0.0 **** 0.06
3629 H 36.86474471348407 155.86134321856497 94.69534964699028 H 0.0 **** 0.06
3630 H 36.67458707530136 155.44810585877963 92.97378306501514 H 0.0 **** 0.06
3631 C 164.82844848307093 37.8631495811631 51.616807040621495 C 0.0 **** -0.24
3632 H 164.63838970494047 38.8921804949062 51.31032581730801 H 0.0 **** 0.06
3633 H 165.12118288469918 37.84538190861386 52.66664729694389 H 0.0 **** 0.06
3634 H 165.63222053099327 37.44587439841439 51.0084094345913 H 0.0 **** 0.06
3635 H 163.9239542504999 37.27028899559127 51.480138846372256 H 0.0 **** 0.06
3636 C 166.7795775936955 112.00935442631177 133.19497859255208 C 0.0 **** -0.24
3637 H 167.44817344767063 112.86889848281612 133.1563228732779 H 0.0 **** 0.06
3638 H 167.1152843917855 111.25617076631619 132.4822556454932 H 0.0 **** 0.06
3639 H 165.76776692037808 112.32464716209074 132.94179818950695 H 0.0 **** 0.06
3640 H 166.78868443893725 111.5884946845176 134.2004400918958 H 0.0 **** 0.06
3641 C 28.92600339785335 192.2645832123677 50.777096704107066 C 0.0 **** -0.24
3642 H 28.823135776019654 192.4227969314195 51.85052455384613 H 0.0 **** 0.06
3643 H 29.14363279537605 191.21336277966253 50.584839695489705 H 0.0 **** 0.06
3644 H 29.74008690040108 192.88086737324892 50.39540236436011 H 0.0 **** 0.06
3645 H 27.996997343385317 192.54032222236754 50.27862361583354 H 0.0 **** 0.06
3646 C 116.5330553640953 20.839735196003062 68.49881448182816 C 0.0 **** -0.24
3647 H 116.21005028169094 20.559202798626472 67.49623182924046 H 0.0 **** 0.06
3648 H 115.74970284610308 21.424880414247525 68.98101630496524 H 0.0 **** 0.06
3649 H 117.44401916420634 21.434419530865796 68.43300283141969 H 0.0 **** 0.06
3650 H 116.72773972066369 19.9404851262085 69.08266290489888 H 0.0 **** 0.06
3651 C 94.25946985361819 64.26724548631353 110.40955691378335 C 0.0 **** -0.24
3652 H 94.43381499465676 65.33861619713792 110.32012977238182 H 0.0 **** 0.06
3653 H 94.14232172740503 64.00384635184514 111.46185770032184 H 0.0 **** 0.06
3654 H 95.10763651311578 63.72470755452537 109.99111622708645 H 0.0 **** 0.06
3655 H 93.35257548838047 64.00018521412778 109.86522967194526 H 0.0 **** 0.06
3656 C 8.441293379616098 81.34421868111465 129.56817586378645 C 0.0 **** -0.24
3657 H 7.746686236641175 81.101601685536 130.37167419474218 H 0.0 **** 0.06
3658 H 9.463500140211352 81.27833764370396 129.94003564568936 H 0.0 **** 0.06
3659 H 8.247829274936066 82.35697897341782 129.21376660011845 H 0.0 **** 0.06
3660 H 8.306419142176871 80.63932963882687 128.74697912180642 H 0.0 **** 0.06
3661 C 86.68966156814258 187.8940272664621 162.2762746450378 C 0.0 **** -0.24
3662 H 85.64538004132163 187.5872632403337 162.32235694265802 H 0.0 **** 0.06
3663 H 87.2472224039771 187.40755551928456 163.07634078340976 H 0.0 **** 0.06
3664 H 86.75563496145622 188.9761307237396 162.39331874295573 H 0.0 **** 0.06
3665 H 87.11016471591188 187.60692568526218 161.31173252604023 H 0.0 **** 0.06
3666 C 75.17980660230785 185.02526186502243 24.288199074687867 C 0.0 **** -0.24
3667 H 74.28302539473864 184.79247526716705 24.86296560313366 H 0.0 **** 0.06
3668 H 76.04702200792225 184.57222120978489 24.768004529797224 H 0.0 **** 0.06
3669 H 75.31179731476202 186.10707391509624 24.245073040502007 H 0.0 **** 0.06
3670 H 75.07490561066261 184.63184536273496 23.277275777731518 H 0.0 **** 0.06
3671 C 139.95255058971844 168.83760584361943 54.41307602045313 C 0.0 **** -0.24
3672 H 139.6138904966877 168.06765453874232 53.718232829624924 H 0.0 **** 0.06
3673 H 139.35195883951727 168.79470463014297 55.32234426697056 H 0.0 **** 0.06
3674 H 139.84231501212895 169.8179651397361 53.94960601129611 H 0.0 **** 0.06
3675 H 141.0000617899294 168.6668818464268 54.660800217656856 H 0.0 **** 0.06
3676 C 150.79357482736935 190.15599276063637 8.65832281873692 C 0.0 **** -0.24
3677 H 151.10469561543795 190.2849922551963 9.694482384402079 H 0.0 **** 0.06
3678 H 151.18316044539645 190.97723755437363 8.05629978828238 H 0.0 **** 0.06
3679 H 149.70411900718736 190.15048405647178 8.604644241631611 H 0.0 **** 0.06
3680 H 151.18012513026497 189.21018778271747 8.278007817276311 H 0.0 **** 0.06
3681 C 191.73074451635352 198.3031881165421 153.26648073356543 C 0.0 **** -0.24
3682 H 191.05524536736374 199.1457645467116 153.12207671901297 H 0.0 **** 0.06
3683 H 191.15032427549107 197.4011580168838 153.4568191084275 H 0.0 **** 0.06
3684 H 192.38344918408578 198.50244904859468 154.11626092553374 H 0.0 **** 0.06
3685 H 192.3348622160695 198.1650179887048 152.37005589415145 H 0.0 **** 0.06
3686 C 41.529853741819295 116.33393524911091 0.6280186256586262 C 0.0 **** -0.24
3687 H 41.113923301319176 115.37847272510723 0.9451808579015051 H 0.0 **** 0.06
3688 H 40.97522444343318 116.70258041341907 -0.23489027279140373 H 0.0 **** 0.06
3689 H 42.57725134136828 116.2026918220881 0.35875837087070295 H 0.0 **** 0.06
3690 H 41.45118672765531 117.05253701271053 1.4441924440645835 H 0.0 **** 0.06
3691 C 96.21054377756118 45.01905872186259 183.6739325686384 C 0.0 **** -0.24
3692 H 96.6121740491119 45.80973977192173 184.30761488886648 H 0.0 **** 0.06
3693 H 95.12268160310771 45.084088307942636 183.658098402951 H 0.0 **** 0.06
3694 H 96.51177169521577 44.048944415240044 184.06820612717064 H 0.0 **** 0.06
3695 H 96.59671605801495 45.13459118963317 182.66121004956705 H 0.0 **** 0.06
3696 C 94.4082545715838 179.0891250602594 149.67996472114984 C 0.0 **** -0.24
3697 H 95.05504826480424 178.76337793391815 148.8654290211814 H 0.0 **** 0.06
3698 H 93.77344851927907 178.26049555772488 149.99381676584855 H 0.0 **** 0.06
3699 H 93.78515660918063 179.91679685769643 149.34071995215882 H 0.0 **** 0.06
3700 H 95.02070241765799 179.41761543388108 150.52004472105497 H 0.0 **** 0.06
3701 C 136.28042797816263 15.951305337284168 39.647242255745084 C 0.0 **** -0.24
3702 H 136.19215088663879 15.778257409143123 40.72015337450307 H 0.0 **** 0.06
3703 H 135.8580220247879 15.104937936535748 39.106761831032145 H 0.0 **** 0.06
3704 H 137.3326240830746 16.06364602100882 39.383604939428324 H 0.0 **** 0.06
3705 H 135.74029154326405 16.859548003965983 39.380844879598726 H 0.0 **** 0.06
3706 C 74.6590919322767 170.34531305004057 78.34732839839798 C 0.0 **** -0.24
3707 H 75.54357538576363 170.97637150516138 78.2608591706691 H 0.0 **** 0.06
3708 H 74.91454899652032 169.43692541062174 78.89393181128605 H 0.0 **** 0.06
3709 H 74.30193691177458 170.0819165160787 77.35105771749888 H 0.0 **** 0.06
3710 H 73.87829649469539 170.88533103507348 78.88273080670186 H 0.0 **** 0.06
3711 C 64.32010563290731 155.93152267523035 164.7199476551552 C 0.0 **** -0.24
3712 H 64.70931074799327 155.08276085670667 164.1568584487265 H 0.0 **** 0.06
3713 H 64.63146103673066 156.85949444287652 164.23882612723435 H 0.0 **** 0.06
3714 H 64.7082378877488 155.90174191028404 165.73739107439172 H 0.0 **** 0.06
3715 H 63.23132297564911 155.8821762358633 164.74448221807975 H 0.0 **** 0.06
3716 C 108.91244608541552 77.607033225916 139.619152722562 C 0.0 **** -0.24
3717 H 109.18744939302945 77.13826754941903 140.5634464168735 H 0.0 **** 0.06
3718 H 109.69746126750249 77.42915201760258 138.88387309471148 H 0.0 **** 0.06
3719 H 108.7899306196201 78.67946717961325 139.7678202677978 H 0.0 **** 0.06
3720 H 107.97550902356656 77.17995301180521 139.26138447591845 H 0.0 **** 0.06
3721 C 139.85849520804362 146.1894884108846 29.966396135870482 C 0.0 **** -0.24
3722 H 140.14847616558933 145.63760990571092 29.072605987384833 H 0.0 **** 0.06
3723 H 138.84565076455328 146.5726014234432 29.844391125592523 H 0.0 **** 0.06
3724 H 140.5464426787836 147.02207580935197 30.118429736962682 H 0.0 **** 0.06
3725 H 139.89561575521145 145.5264069401297 30.83092705976837 H 0.0 **** 0.06
3726 C 30.32390385798459 145.125285764832 160.76030813450333 C 0.0 **** -0.24
3727 H 30.21179715017314 144.7902728168547 161.79142068450045 H 0.0 **** 0.06
3728 H 31.013129508688337 144.4635525904344 160.23607833488137 H 0.0 **** 0.06
3729 H 30.71507423976584 146.1418011405798 160.7497312982304 H 0.0 **** 0.06
3730 H 29.353062351597316 145.10439841143057 160.2644884238154 H 0.0 **** 0.06
3731 C 37.62344756752478 131.73831415665202 104.17832158777108 C 0.0 **** -0.24
3732 H 37.92536409986563 132.57316277868753 104.81216771002309 H 0.0 **** 0.06
3733 H 38.49459901239244 131.1249435652444 103.9471109251518 H 0.0 **** 0.06
3734 H 37.193866843565885 132.12287935399618 103.25290021954845 H 0.0 **** 0.06
3735 H 36.881157530531866 131.13580401787647 104.70081722648945 H 0.0 **** 0.06
3736 C 20.969875395951192 121.28295328755269 162.65964175854873 C 0.0 **** -0.24
3737 H 21.12275682374485 120.2890472443141 163.0807590088679 H 0.0 **** 0.06
3738 H 20.455122917302617 121.91044066260258 163.3877929652193 H 0.0 **** 0.06
3739 H 20.36714361953389 121.20582422930201 161.7554823882329 H 0.0 **** 0.06
3740 H 21.936225981781433 121.72632584519482 162.41591642185168 H 0.0 **** 0.06
3741 C 52.79404063365428 100.3291560395441 33.16788193081575 C 0.0 **** -0.24
3742 H 51.899713329463395 100.34328923575535 32.54510219191769 H 0.0 **** 0.06
3743 H 53.36835231997213 101.24047740120503 32.99788731430897 H 0.0 **** 0.06
3744 H 53.40258086813708 99.46319261156265 32.91011114975856 H 0.0 **** 0.06
3745 H 52.505843548134635 100.27175550688486 34.21719326976557 H 0.0 **** 0.06
3746 C 74.49190195616094 94.81089156334144 56.35676986588666 C 0.0 **** -0.24
3747 H 73.61162147148114 94.41625384351624 56.864934245962516 H 0.0 **** 0.06
3748 H 74.31706909401126 94.81699555820188 55.2808549547827 H 0.0 **** 0.06
3749 H 75.35326941338442 94.18271250144579 56.58293538882907 H 0.0 **** 0.06
3750 H 74.68276030535569 95.82773841863343 56.70050996493242 H 0.0 **** 0.06
3751 C 138.89659938322586 143.63389959622123 6.797824681735847 C 0.0 **** -0.24
3752 H 137.99620947792522 144.24812364642287 6.810052411047366 H 0.0 **** 0.06
3753 H 138.6454152390288 142.6280212457056 6.4604317871321655 H 0.0 **** 0.06
3754 H 139.3168162547256 143.58658022119252 7.8021146424716505 H 0.0 **** 0.06
3755 H 139.6259319397488 144.07357961575133 6.118065777582359 H 0.0 **** 0.06
3756 C 51.67568423918584 151.32608440628388 164.6274094157718 C 0.0 **** -0.24
3757 H 51.14530179624336 152.27896108345567 164.61432454648377 H 0.0 **** 0.06
3758 H 51.83016719610606 150.9840770048161 163.60390678169892 H 0.0 **** 0.06
3759 H 51.08536374705761 150.59019536262474 165.1723641755604 H 0.0 **** 0.06
3760 H 52.639945147598496 151.45492663102536 165.11829967661953 H 0.0 **** 0.06
3761 C 70.18418680411946 93.97792326249123 69.76639689031882 C 0.0 **** -0.24
3762 H 70.11670739067436 94.34745220877397 68.74371876666356 H 0.0 **** 0.06
3763 H 71.21744898452596 93.71381664121088 69.99050318376088 H 0.0 **** 0.06
3764 H 69.5523170292907 93.09631154422084 69.87602835104951 H 0.0 **** 0.06
3765 H 69.84892425633785 94.75244572737995 70.45652055140901 H 0.0 **** 0.06
3766 C 22.668556079767825 19.024712587798234 114.00393583369731 C 0.0 **** -0.24
3767 H 22.964365197101813 18.796190461306622 115.02781926714366 H 0.0 **** 0.06
3768 H 22.4708692176535 20.093735788972282 113.91297965306208 H 0.0 **** 0.06
3769 H 21.76735696126451 18.465258617829647 113.75326057737468 H 0.0 **** 0.06
3770 H 23.472335431084275 18.744047124596705 113.32285041491892 H 0.0 **** 0.06
3771 C 108.45472737707522 51.33061491609274 44.88149525033941 C 0.0 **** -0.24
3772 H 108.71322207783143 51.54709189646451 45.91819477094343 H 0.0 **** 0.06
3773 H 108.40620337546275 50.25155740708922 44.73623689512938 H 0.0 **** 0.06
3774 H 109.21286725248274 51.753045804551675 44.2217560865122 H 0.0 **** 0.06
3775 H 107.48545778008139 51.77267413014437 44.649894750803185 H 0.0 **** 0.06
3776 C 28.1317424066456 198.8087622838107 70.32937397801668 C 0.0 **** -0.24
3777 H 29.01492113481781 199.2375836408506 69.85427368035677 H 0.0 **** 0.06
3778 H 27.874176653848664 199.3940638787197 71.21230920596845 H 0.0 **** 0.06
3779 H 28.341516763395376 197.78042235658012 70.62284183834275 H 0.0 **** 0.06
3780 H 27.299257590584304 198.8231910395671 69.6268339462348 H 0.0 **** 0.06
3781 C 123.53635970048845 115.22988449696419 59.881537796735856 C 0.0 **** -0.24
3782 H 123.47419575207607 114.2375768811693 59.434096252696335 H 0.0 **** 0.06
3783 H 124.08797160233951 115.89397498899919 59.21547786827345 H 0.0 **** 0.06
3784 H 124.05294388240105 115.16391626607904 60.83921240913752 H 0.0 **** 0.06
3785 H 122.53108847128476 115.62239370246985 60.03574858889283 H 0.0 **** 0.06
3786 C 43.90178133828698 0.5277640429983776 116.36046316831252 C 0.0 **** -0.24
3787 H 44.499533776753054 1.083672043715751 115.63852619937902 H 0.0 **** 0.06
3788 H 44.47237252844269 -0.32786166782901205 116.72222141418632 H 0.0 **** 0.06
3789 H 42.98588746609869 0.1796027049665767 115.88252406277599 H 0.0 **** 0.06
3790 H 43.649953667711486 1.1770763963894524 117.19932846603754 H 0.0 **** 0.06
3791 C 87.79706863488946 134.67991683405168 184.1134247706794 C 0.0 **** -0.24
3792 H 86.75305981225051 134.85089927675642 184.37678815945256 H 0.0 **** 0.06
3793 H 87.86568676776113 133.82943464548524 183.4337437263532 H 0.0 **** 0.06
3794 H 88.36954533172883 134.4691702363048 185.0171575863889 H 0.0 **** 0.06
3795 H 88.19913710650223 135.56813292592665 183.6264136893363 H 0.0 **** 0.06
3796 C 134.87125211728707 104.14088836992747 7.218338313708472 C 0.0 **** -0.24
3797 H 135.12022614591663 105.20149924078393 7.17581527564019 H 0.0 **** 0.06
3798 H 133.9578017591975 104.0049491088835 7.7978239954323385 H 0.0 **** 0.06
3799 H 135.68717458447853 103.59544521532632 7.693283563480406 H 0.0 **** 0.06
3800 H 134.72026501785163 103.76212572590237 6.207684352900543 H 0.0 **** 0.06
3801 C 89.52414694834559 134.45683671030378 79.90442840306036 C 0.0 **** -0.24
3802 H 90.15713727984487 134.45388918661013 80.79143641935565 H 0.0 **** 0.06
3803 H 88.9473659972218 133.53161952802063 79.86689673907915 H 0.0 **** 0.06
3804 H 90.14860812801209 134.53260915297443 79.0138816784472 H 0.0 **** 0.06
3805 H 88.84489819800521 135.30755041779292 79.94509750783652 H 0.0 **** 0.06
3806 C 123.7275680047932 172.82676138965795 95.4701384199195 C 0.0 **** -0.24
3807 H 124.71156858105454 173.01306839207194 95.8993647351175 H 0.0 **** 0.06
3808 H 123.07266874505726 173.6712352220187 95.68502115673954 H 0.0 **** 0.06
3809 H 123.30670327408319 171.92017840995175 95.9036587043216 H 0.0 **** 0.06
3810 H 123.81966430268554 172.70455959452897 94.39112884335506 H 0.0 **** 0.06
3811 C 53.68082551472558 70.94476481765147 190.47364197369563 C 0.0 **** -0.24
3812 H 52.821426449319105 71.53481914788384 190.15339700228634 H 0.0 **** 0.06
3813 H 54.56073451083921 71.25054432743637 189.90752561196223 H 0.0 **** 0.06
3814 H 53.482218760105155 69.88767448965098 190.2942427019765 H 0.0 **** 0.06
3815 H 53.85654126332149 71.10650545516228 191.53673867905002 H 0.0 **** 0.06
3816 C 25.362269898604225 197.8519396394305 82.32745027527665 C 0.0 **** -0.24
3817 H 25.436454762657533 197.0040577269943 81.64604029270936 H 0.0 **** 0.06
3818 H 26.336758971079306 198.0434519913576 82.77545666533513 H 0.0 **** 0.06
3819 H 24.63975695160893 197.6248691398931 83.11158465124453 H 0.0 **** 0.06
3820 H 25.034931392299214 198.7326600277719 81.77625362207198 H 0.0 **** 0.06
3821 C 48.14189434176275 54.348900409493524 51.76113609808513 C 0.0 **** -0.24
3822 H 48.495212027866856 54.30260993049623 52.79094893222313 H 0.0 **** 0.06
3823 H 47.06878210526526 54.15592916724164 51.73574044746729 H 0.0 **** 0.06
3824 H 48.66035386158819 53.596993800319666 51.16621773436643 H 0.0 **** 0.06
3825 H 48.3434231125249 55.3386700650553 51.3515584328473 H 0.0 **** 0.06
3826 C 73.47483856615906 8.867142331316131 36.546105759047066 C 0.0 **** -0.24
3827 H 73.69917188158155 9.524298843351971 35.705530016732084 H 0.0 **** 0.06
3828 H 74.28949776410343 8.154867498015705 36.67703946895894 H 0.0 **** 0.06
3829 H 72.54829960733935 8.327362396087409 36.347747787175734 H 0.0 **** 0.06
3830 H 73.36154839808671 9.46217327299155 37.45203632365468 H 0.0 **** 0.06
3831 C 10.316696696128787 111.86790027100267 161.82629097703787 C 0.0 **** -0.24
3832 H 10.794262490663634 111.09675739987742 162.4313242666412 H 0.0 **** 0.06
3833 H 9.318162016332828 112.06888898803413 162.2165264788336 H 0.0 **** 0.06
3834 H 10.241919456003615 111.52460480661117 160.79513228837948 H 0.0 **** 0.06
3835 H 10.912528778652366 112.77972849436034 161.86401494597277 H 0.0 **** 0.06
3836 C 107.00093368320495 29.745337154005213 74.9817746494023 C 0.0 **** -0.24
3837 H 106.69175853786192 29.724017617848745 76.02623233834807 H 0.0 **** 0.06
3838 H 106.74485067506771 28.797401010995983 74.50794635093376 H 0.0 **** 0.06
3839 H 108.07840851211893 29.900050813619742 74.92485927827433 H 0.0 **** 0.06
3840 H 106.48904803406418 30.558504232115595 74.46805970171354 H 0.0 **** 0.06
3841 C 198.04554906493695 62.31842328525107 5.233926454829394 C 0.0 **** -0.24
3842 H 198.52459604875565 63.295870698401586 5.181799557334195 H 0.0 **** 0.06
3843 H 197.96461680316213 62.008965534319714 6.2759511917338315 H 0.0 **** 0.06
3844 H 198.64334265120937 61.59102484489824 4.6841728442676285 H 0.0 **** 0.06
3845 H 197.05055846721658 62.37743723713828 4.793738167906078 H 0.0 **** 0.06
3846 C 67.01910879985273 4.675780558979945 114.03210668084455 C 0.0 **** -0.24
3847 H 66.21411603074252 4.147078397156747 113.51963093233309 H 0.0 **** 0.06
3848 H 67.10184809645162 4.307040920968802 115.05394323622076 H 0.0 **** 0.06
3849 H 66.80005344074678 5.743133234707237 114.04609535164113 H 0.0 **** 0.06
3850 H 67.95824453602918 4.503857151299734 113.50647079231811 H 0.0 **** 0.06
3851 C 78.4535162303101 186.4328707977868 127.25090770959883 C 0.0 **** -0.24
3852 H 78.81941547127258 186.26546863106856 128.26423636121064 H 0.0 **** 0.06
3853 H 79.28439205265232 186.36186087510703 126.54879828328419 H 0.0 **** 0.06
3854 H 78.00555628043884 187.42455353531548 127.18618585989546 H 0.0 **** 0.06
3855 H 77.70429628965434 185.68039212452103 127.0066926618596 H 0.0 **** 0.06
3856 C 83.7323325563884 32.40511827813599 98.65584266463748 C 0.0 **** -0.24
3857 H 82.73748820466153 32.215403384484645 99.05984350010237 H 0.0 **** 0.06
3858 H 83.74851835114217 33.382033138894414 98.1730517691451 H 0.0 **** 0.06
3859 H 83.98043400054064 31.63389356732621 97.92719063292827 H 0.0 **** 0.06
3860 H 84.46136094496609 32.387346447552915 99.46618917123072 H 0.0 **** 0.06
3861 C 43.06905260426254 52.00893992760359 129.1769644511678 C 0.0 **** -0.24
3862 H 42.54656804975082 52.0024090719746 128.2206491741345 H 0.0 **** 0.06
3863 H 42.45753653365739 52.52043137232499 129.92091760830277 H 0.0 **** 0.06
3864 H 44.02003504507502 52.52967110947682 129.0673647080706 H 0.0 **** 0.06
3865 H 43.25075656829938 50.983230023522054 129.49840426099377 H 0.0 **** 0.06
3866 C 20.87239562459895 168.54815505820116 115.5587924557546 C 0.0 **** -0.24
3867 H 20.09411595621755 168.73290861650736 114.81825645667345 H 0.0 **** 0.06
3868 H 20.72157416243354 167.5660080246852 116.00699305425832 H 0.0 **** 0.06
3869 H 20.82465160987458 169.31362158111082 116.33332792567279 H 0.0 **** 0.06
3870 H 21.84935441732003 168.58036745389134 115.07564074155096 H 0.0 **** 0.06
3871 C 182.4272404572747 41.84709348042071 37.962979507214584 C 0.0 **** -0.24
3872 H 182.1099579546031 41.325395367078144 37.06043556940389 H 0.0 **** 0.06
3873 H 182.26433016385423 42.91869090946146 37.83858530733164 H 0.0 **** 0.06
3874 H 183.48624819311345 41.658047776266 38.138433255322965 H 0.0 **** 0.06
3875 H 181.8471604019209 41.48813573209085 38.812788976470586 H 0.0 **** 0.06
3876 C 181.89221206025508 67.89914273726464 32.99749710632909 C 0.0 **** -0.24
3877 H 182.48844033557 67.34149152625383 32.27536093531921 H 0.0 **** 0.06
3878 H 182.24639846028697 67.6819685961243 34.00514489492258 H 0.0 **** 0.06
3879 H 180.84624420675812 67.60587367033219 32.908816881811674 H 0.0 **** 0.06
3880 H 181.98872043492628 68.96625605756168 32.800312035428135 H 0.0 **** 0.06
3881 C 31.581911064364746 119.8827858215576 71.21515252941157 C 0.0 **** -0.24
3882 H 31.925190848894445 119.33871718567957 70.33488040960577 H 0.0 **** 0.06
3883 H 32.06531957726794 120.86036400844714 71.24963198738979 H 0.0 **** 0.06
3884 H 31.837148135818993 119.31951544075682 72.11228082545863 H 0.0 **** 0.06
3885 H 30.501666112495684 120.01290573417268 71.16238603312553 H 0.0 **** 0.06
3886 C 198.5181545836345 4.212832843670924 51.87971360481657 C 0.0 **** -0.24
3887 H 197.63917468917015 3.6407413537294673 52.175857731298095 H 0.0 **** 0.06
3888 H 198.41486837597665 5.242851522439601 52.22317422089249 H 0.0 **** 0.06
3889 H 198.6104796427021 4.199105263017614 50.793519179957784 H 0.0 **** 0.06
3890 H 199.40762232071916 3.767964259727705 52.325730160172185 H 0.0 **** 0.06
3891 C 158.4980064366539 130.65862759206112 137.21912950222656 C 0.0 **** -0.24
3892 H 159.52481624687266 130.5914114812478 136.8598617932812 H 0.0 **** 0.06
3893 H 158.4643789989599 130.38857396656798 138.2743635548471 H 0.0 **** 0.06
3894 H 157.86855484149635 129.97661157144609 136.64786729402007 H 0.0 **** 0.06
3895 H 158.13542855260243 131.67888398914744 137.09277345793586 H 0.0 **** 0.06
3896 C 141.1616713084499 134.79277084490812 169.95929629024795 C 0.0 **** -0.24
3897 H 140.75284156252235 135.7349735168548 169.59624806250758 H 0.0 **** 0.06
3898 H 141.95050148596314 134.45552905365284 169.28620444819927 H 0.0 **** 0.06
3899 H 140.36938240102776 134.04360044090714 169.99533407992718 H 0.0 **** 0.06
3900 H 141.57203581237755 134.93593994398495 170.95893385798067 H 0.0 **** 0.06
3901 C 33.49200146328229 49.882641097269925 122.4678079740462 C 0.0 **** -0.24
3902 H 34.22693284853591 49.07911328031304 122.53203902329236 H 0.0 **** 0.06
3903 H 33.05283136534075 50.0525654209477 123.45124584639106 H 0.0 **** 0.06
3904 H 32.7098262342397 49.60394443024478 121.76283795657136 H 0.0 **** 0.06
3905 H 33.98160989129394 50.79423103744796 122.1256485906026 H 0.0 **** 0.06
3906 C 8.214849382461978 174.63652536908285 37.78589553726265 C 0.0 **** -0.24
3907 H 7.87802175240779 175.66868328836176 37.68721489521742 H 0.0 **** 0.06
3908 H 7.828994022599659 174.21683033570943 38.71516321269404 H 0.0 **** 0.06
3909 H 9.304485462909952 174.61006094906074 37.79844664651668 H 0.0 **** 0.06
3910 H 7.846286224161901 174.0520690298423 36.94292954363321 H 0.0 **** 0.06
3911 C 163.30788252622372 110.436348600999 182.74415957653108 C 0.0 **** -0.24
3912 H 162.30356113981344 110.83995924924 182.87101252322725 H 0.0 **** 0.06
3913 H 163.69327261040516 110.11329160674964 183.71173043442894 H 0.0 **** 0.06
3914 H 163.9594341615485 111.20783623287682 182.33239992855857 H 0.0 **** 0.06
3915 H 163.27488827392654 109.58623363250922 182.0625676110621 H 0.0 **** 0.06
3916 C 160.75304854324392 193.1526218004664 75.37851535029421 C 0.0 **** -0.24
3917 H 160.72343566935012 192.10636098866206 75.07339392316675 H 0.0 **** 0.06
3918 H 160.08905551707952 193.73653871617006 74.74070347291205 H 0.0 **** 0.06
3919 H 161.77236557007885 193.52836331891052 75.28330076438786 H 0.0 **** 0.06
3920 H 160.4302583580871 193.2370069899525 76.41591995119458 H 0.0 **** 0.06
3921 C 98.84983901478671 26.385949544327275 66.73031759105896 C 0.0 **** -0.24
3922 H 99.52647727194724 26.93233679464869 67.38759403990144 H 0.0 **** 0.06
3923 H 99.02552989701476 25.31522672984842 66.8393958876876 H 0.0 **** 0.06
3924 H 99.02999557238047 26.68091891635818 65.69640880700001 H 0.0 **** 0.06
3925 H 97.81893465315554 26.614660988901335 66.99962400342264 H 0.0 **** 0.06
3926 C 50.940089575228626 142.76062057532434 9.967360795693196 C 0.0 **** -0.24
3927 H 51.067011921816714 141.76371708268496 10.39012058388505 H 0.0 **** 0.06
3928 H 50.38750287663001 143.38560621278938 10.669665999560607 H 0.0 **** 0.06
3929 H 50.38804186136804 142.69027102278832 9.030402987964294 H 0.0 **** 0.06
3930 H 51.918736266815415 143.20317327712098 9.779465987614401 H 0.0 **** 0.06
3931 C 97.61597685091203 125.0738119766464 38.76563418486272 C 0.0 **** -0.24
3932 H 96.95806180093521 124.67735057571338 39.53971612590141 H 0.0 **** 0.06
3933 H 98.47571792454775 124.4135053095433 38.64816464612369 H 0.0 **** 0.06
3934 H 97.95722842722193 126.06799210750654 39.053460352032346 H 0.0 **** 0.06
3935 H 97.07193407512236 125.13443846449465 37.823250207011924 H 0.0 **** 0.06
3936 C 3.7078793363257603 38.594424297641325 105.29817692219927 C 0.0 **** -0.24
3937 H 4.437074690569432 39.324880213232376 104.9466289314137 H 0.0 **** 0.06
3938 H 4.095081627013428 37.589069918886125 105.13455654721784 H 0.0 **** 0.06
3939 H 2.775411502884765 38.718793261847495 104.74778090268504 H 0.0 **** 0.06
3940 H 3.525436266710358 38.746323804898495 106.36152480789616 H 0.0 **** 0.06
3941 C 48.32225867562852 65.58558406912942 29.900926770053843 C 0.0 **** -0.24
3942 H 47.40777609501663 66.11031678820771 29.62439491761336 H 0.0 **** 0.06
3943 H 48.155939861939544 65.02846944797191 30.82270821116157 H 0.0 **** 0.06
3944 H 49.12352931049972 66.30910912713956 30.05103520237128 H 0.0 **** 0.06
3945 H 48.59967350672014 64.89600972794035 29.103818925151927 H 0.0 **** 0.06
3946 C 31.167277037656106 174.72129442311024 133.56189115442916 C 0.0 **** -0.24
3947 H 30.812066488255283 175.527923559047 132.92050313834153 H 0.0 **** 0.06
3948 H 30.31529933727049 174.15368702873084 133.93691587212436 H 0.0 **** 0.06
3949 H 31.723408343783262 175.14057816834503 134.4001970579895 H 0.0 **** 0.06
3950 H 31.818812456574847 174.0624428279043 132.98760911413152 H 0.0 **** 0.06
3951 C 116.59704195611303 186.04585008967544 73.53669526077203 C 0.0 **** -0.24
3952 H 115.64729181600404 185.51568884229056 73.60491840838398 H 0.0 **** 0.06
3953 H 116.77753567453607 186.58856042286678 74.46421570753154 H 0.0 **** 0.06
3954 H 116.56078705277653 186.7497124708508 72.7043371382515 H 0.0 **** 0.06
3955 H 117.40218475133398 185.33000882977552 73.37171632900021 H 0.0 **** 0.06
3956 C 109.69161830480701 177.03053005172544 84.30970785061913 C 0.0 **** -0.24
3957 H 109.6939385320886 175.9557274036398 84.48856406927348 H 0.0 **** 0.06
3958 H 109.1952367446255 177.53568457603268 85.1393607747226 H 0.0 **** 0.06
3959 H 109.15960966326705 177.24482918871644 83.38279611372684 H 0.0 **** 0.06
3960 H 110.71883134651037 177.38651279857788 84.22992479132859 H 0.0 **** 0.06
3961 C 137.4118784791986 130.88324755064082 71.10066648911294 C 0.0 **** -0.24
3962 H 136.65757740711558 130.21539218955303 71.51593240089059 H 0.0 **** 0.06
3963 H 137.4331680328851 131.80913411636783 71.6766287568142 H 0.0 **** 0.06
3964 H 137.16735281074756 131.1065448266035 70.06276226407309 H 0.0 **** 0.06
3965 H 138.38808410544542 130.4020102825109 71.14883206920476 H 0.0 **** 0.06
3966 C 69.81931556602149 88.29396098384606 43.045727011803024 C 0.0 **** -0.24
3967 H 69.59390103027118 88.09379968537002 41.99756602483711 H 0.0 **** 0.06
3968 H 68.91413489760743 88.17268536991011 43.64011480542993 H 0.0 **** 0.06
3969 H 70.1889299271175 89.31364159698165 43.148388239497606 H 0.0 **** 0.06
3970 H 70.58047365169341 87.59481972065052 43.392696109386534 H 0.0 **** 0.06
3971 C 37.290505384841765 168.32756977261806 172.59656221628265 C 0.0 **** -0.24
3972 H 36.47111338967227 167.7382086137588 172.18507119035408 H 0.0 **** 0.06
3973 H 38.21770671104491 167.75662378189332 172.5286423657871 H 0.0 **** 0.06
3974 H 37.08181411452614 168.56013296631735 173.64073030290834 H 0.0 **** 0.06
3975 H 37.391381406399276 169.2533978800248 172.03027869703942 H 0.0 **** 0.06
3976 C 66.91377590515904 194.4877537407433 73.19684656620315 C 0.0 **** -0.24
3977 H 67.74151442239611 194.18952234054288 73.84014871732943 H 0.0 **** 0.06
3978 H 66.34519327520076 195.2816334508262 73.68198726564053 H 0.0 **** 0.06
3979 H 66.26480186325404 193.63031340591326 73.01969284774835 H 0.0 **** 0.06
3980 H 67.30542853183422 194.84909869565155 72.24621692416163 H 0.0 **** 0.06
3981 C 166.7132094502179 45.56877116420105 121.49823857902936 C 0.0 **** -0.24
3982 H 167.6949713280564 45.1345905466072 121.6897653640699 H 0.0 **** 0.06
3983 H 166.1147335060543 45.529746170581404 122.40821784749596 H 0.0 **** 0.06
3984 H 166.21527627437683 45.00403488055349 120.71019596611666 H 0.0 **** 0.06
3985 H 166.83091637680766 46.60558463607913 121.18417079533299 H 0.0 **** 0.06
3986 C 113.12361144662597 75.09044027299234 75.3408097677863 C 0.0 **** -0.24
3987 H 113.81421380969152 74.25880386577919 75.47560188467254 H 0.0 **** 0.06
3988 H 113.26944927343777 75.81671037294618 76.14189640719958 H 0.0 **** 0.06
3989 H 112.0990885229256 74.71968268359234 75.37010598118474 H 0.0 **** 0.06
3990 H 113.31082259381049 75.56759634660158 74.37866385491502 H 0.0 **** 0.06
3991 C 5.866974232634718 119.09876712351809 59.60443850404032 C 0.0 **** -0.24
3992 H 4.89099691496898 119.49903639938202 59.87902267225222 H 0.0 **** 0.06
3993 H 6.083804169087365 119.35016243501155 58.566682830577435 H 0.0 **** 0.06
3994 H 5.860238513082592 118.01455720008767 59.7224477587331 H 0.0 **** 0.06
3995 H 6.630619700771916 119.53023384656444 60.25128295218275 H 0.0 **** 0.06
3996 C 111.07499490678515 160.41857276622716 159.4864366793559 C 0.0 **** -0.24
3997 H 111.88449200663393 161.14716185042528 159.43539661972557 H 0.0 **** 0.06
3998 H 111.25724927390348 159.73051104384865 160.31184087769861 H 0.0 **** 0.06
3999 H 111.02789693838486 159.8611489107403 158.55136657952028 H 0.0 **** 0.06
4000 H 110.12920722233082 160.93748576139367 159.64794729803208 H 0.0 **** 0.06
4001 C 106.47738083844831 37.158581928371504 35.49633255459726 C 0.0 **** -0.24
4002 H 105.87191268573451 37.83968009505176 34.89855560647395 H 0.0 **** 0.06
4003 H 105.84501393470134 36.366534000786444 35.89689197911241 H 0.0 **** 0.06
4004 H 106.93721623177856 37.70800576002924 36.31870022117873 H 0.0 **** 0.06
4005 H 107.25577625179193 36.72146517973597 34.87121560306824 H 0.0 **** 0.06
4006 C 58.288527242541505 26.268057677548256 26.925055675691766 C 0.0 **** -0.24
4007 H 58.84138198907469 26.31648414024079 25.986843443749322 H 0.0 **** 0.06
4008 H 57.75513554730334 25.318296936329318 26.983831158617164 H 0.0 **** 0.06
4009 H 57.57344352748602 27.089073146822784 26.967335014351377 H 0.0 **** 0.06
4010 H 58.983000242675914 26.346774602193165 27.7607581071463 H 0.0 **** 0.06
4011 C 141.71942782761028 165.86364707700943 3.5678318203365436 C 0.0 **** -0.24
4012 H 141.0243288123853 166.64659479766908 3.2657806773107794 H 0.0 **** 0.06
4013 H 142.7113066785663 166.0862420180685 3.175404115168341 H 0.0 **** 0.06
4014 H 141.3793047012091 164.90531991301907 3.174943801700117 H 0.0 **** 0.06
4015 H 141.76080271444437 165.8159103107757 4.656122685850853 H 0.0 **** 0.06
4016 C 12.344156341836587 39.222894056278435 94.17874454117168 C 0.0 **** -0.24
4017 H 11.90261413746083 39.480753607676604 93.21633786690916 H 0.0 **** 0.06
4018 H 13.40365127749574 39.00317009560638 94.04389809523798 H 0.0 **** 0.06
4019 H 11.8400175224509 38.345905006383106 94.58521833835573 H 0.0 **** 0.06
4020 H 12.230141169918475 40.059063327912554 94.86692483853699 H 0.0 **** 0.06
4021 C 111.1951553235416 107.27898668691572 84.56833269398928 C 0.0 **** -0.24
4022 H 110.93947777887371 108.20601258992272 85.0803010756122 H 0.0 **** 0.06
4023 H 110.46247897252871 107.08105237567261 83.78594017354374 H 0.0 **** 0.06
4024 H 111.19377807102657 106.45636388367706 85.28429675405894 H 0.0 **** 0.06
4025 H 112.18658563285726 107.37159872261947 84.12391886131522 H 0.0 **** 0.06
4026 C 45.95133855430177 86.79338288009393 138.08545441460313 C 0.0 **** -0.24
4027 H 45.294419755408825 86.64538367414892 137.22833854796033 H 0.0 **** 0.06
4028 H 46.152503101154934 87.85745570406903 138.2095331514995 H 0.0 **** 0.06
4029 H 46.88889055965589 86.26246502103595 137.91954735321207 H 0.0 **** 0.06
4030 H 45.468856111127536 86.4058230572443 138.98307503118656 H 0.0 **** 0.06
4031 C 64.02246345635909 151.53206375159806 186.53931189348694 C 0.0 **** -0.24
4032 H 64.48425672514927 150.6532554294222 186.0880208385273 H 0.0 **** 0.06
4033 H 64.23821650483002 152.40886739657805 185.92742407045225 H 0.0 **** 0.06
4034 H 64.42446001522663 151.67959025692682 187.5413245500556 H 0.0 **** 0.06
4035 H 62.94393366241678 151.38630499753282 186.59688397618086 H 0.0 **** 0.06
4036 C 180.50223690985453 157.300679855709 99.21080289000554 C 0.0 **** -0.24
4037 H 180.08547457039344 156.54696927076188 99.87882698182247 H 0.0 **** 0.06
4038 H 181.5039200032713 156.9991368566403 98.90295633202697 H 0.0 **** 0.06
4039 H 180.55410735565818 158.25751205635692 99.73145277694266 H 0.0 **** 0.06
4040 H 179.8650927739501 157.40007212634552 98.33219649234798 H 0.0 **** 0.06
4041 C 81.41057816110049 21.121724588538342 150.10225066902794 C 0.0 **** -0.24
4042 H 81.29534347840928 21.94515930344909 150.8075392161103 H 0.0 **** 0.06
4043 H 80.56978252120811 20.43476357500856 150.2055462200875 H 0.0 **** 0.06
4044 H 82.33994857276195 20.59322848453516 150.31053449448171 H 0.0 **** 0.06
4045 H 81.43614097708789 21.515617666372805 149.08652164255443 H 0.0 **** 0.06
4046 C 102.79048080478213 70.93884297516661 180.55775953982888 C 0.0 **** -0.24
4047 H 103.69526555768925 70.36733464278797 180.35423453273478 H 0.0 **** 0.06
4048 H 102.83602972425774 71.89118700029104 180.02892511489583 H 0.0 **** 0.06
4049 H 102.71003023981723 71.12248752611436 181.63028978186156 H 0.0 **** 0.06
4050 H 101.92088157126614 70.37567428606258 180.22062179394254 H 0.0 **** 0.06
4051 C 18.114215010362443 81.63257339809147 23.132456371385345 C 0.0 **** -0.24
4052 H 17.627090801879888 80.67756539757292 23.33010356492214 H 0.0 **** 0.06
4053 H 17.509115265555977 82.21233269050009 22.4362889214232 H 0.0 **** 0.06
4054 H 19.098039999183698 81.45403044946272 22.697147843191132 H 0.0 **** 0.06
4055 H 18.224432888441328 82.18377846203586 24.06624900133147 H 0.0 **** 0.06
4056 C 196.38619430862443 20.997295583769358 150.55066075476452 C 0.0 **** -0.24
4057 H 195.34184924310097 21.026360489270587 150.86118497914225 H 0.0 **** 0.06
4058 H 196.76291327098988 22.01534848971494 150.4472402210306 H 0.0 **** 0.06
4059 H 196.46710599913104 20.480689082259346 149.59455265846827 H 0.0 **** 0.06
4060 H 196.97442785983847 20.467363983833025 151.30082973794123 H 0.0 **** 0.06
4061 C 27.68727014582508 179.45597620430823 75.71288286927938 C 0.0 **** -0.24
4062 H 28.72293721247773 179.50439978170493 75.37587459684073 H 0.0 **** 0.06
4063 H 27.43898496900509 180.36783125607533 76.25678960430747 H 0.0 **** 0.06
4064 H 27.559454974276534 178.5945573895604 76.36973797306598 H 0.0 **** 0.06
4065 H 27.028855016475845 179.35514075765653 74.85079390289377 H 0.0 **** 0.06
4066 C 152.42697280773433 138.4831562617808 162.72869615903204 C 0.0 **** -0.24
4067 H 151.66230342242523 138.36882304438632 163.49657070231166 H 0.0 **** 0.06
4068 H 153.21549321609268 139.14071563197578 163.096663486215 H 0.0 **** 0.06
4069 H 151.98066354401635 138.91624351933774 161.83373574519658 H 0.0 **** 0.06
4070 H 152.84995815829245 137.50722061638427 162.48942078884403 H 0.0 **** 0.06
4071 C 104.88439420839788 39.236861247622585 38.36891048459526 C 0.0 **** -0.24
4072 H 105.2850958118405 39.400091649745434 37.36810692817906 H 0.0 **** 0.06
4073 H 105.70167211109296 39.227287700272456 39.09010938961316 H 0.0 **** 0.06
4074 H 104.36138010058286 38.280715007718015 38.39888222602934 H 0.0 **** 0.06
4075 H 104.189318821706 40.03928553014944 38.61681604715389 H 0.0 **** 0.06
4076 C 114.72027404511223 53.558106895881195 180.66740168434143 C 0.0 **** -0.24
4077 H 115.07973333629158 52.87376078311766 181.43622813405247 H 0.0 **** 0.06
4078 H 114.85390641078908 54.58611097019964 181.0042691611879 H 0.0 **** 0.06
4079 H 113.66239426289275 53.37084268669618 180.4823282617679 H 0.0 **** 0.06
4080 H 115.28405748349178 53.40062104160903 179.74767447893544 H 0.0 **** 0.06
4081 C 155.30869186597957 13.238163239844738 161.45258755095807 C 0.0 **** -0.24
4082 H 154.29884205595314 12.976275038078938 161.76730901321565 H 0.0 **** 0.06
4083 H 155.97094320908104 12.38698061458257 161.60789035199508 H 0.0 **** 0.06
4084 H 155.66327829286922 14.086230960418703 162.03865947198943 H 0.0 **** 0.06
4085 H 155.30139508558852 13.505167665648173 160.39511315020997 H 0.0 **** 0.06
4086 C 75.25045894570798 81.78158491001989 161.60900185846066 C 0.0 **** -0.24
4087 H 75.37866896688558 80.69916742735211 161.59908886960443 H 0.0 **** 0.06
4088 H 75.55876256523487 82.17562708213845 162.57763508999872 H 0.0 **** 0.06
4089 H 74.20239379425556 82.0245365517626 161.43387727103274 H 0.0 **** 0.06
4090 H 75.86374631010608 82.22644748514426 160.82458640295596 H 0.0 **** 0.06
4091 C 137.61542359103575 145.54158517167437 128.39504658217334 C 0.0 **** -0.24
4092 H 136.97475886987175 145.67412630130565 129.26759358575765 H 0.0 **** 0.06
4093 H 138.594198333171 145.97952756515204 128.5939464905748 H 0.0 **** 0.06
4094 H 137.16352389893498 146.03623462607493 127.5351993453871 H 0.0 **** 0.06
4095 H 137.72850932874073 144.47857362891654 128.1856839158015 H 0.0 **** 0.06
4096 C 138.0865310705596 144.63124933661018 133.01154810875167 C 0.0 **** -0.24
4097 H 138.01246474597878 145.71483144433813 132.9282916102791 H 0.0 **** 0.06
4098 H 137.2361421028206 144.16947427755022 132.50829060556893 H 0.0 **** 0.06
4099 H 138.0848522728128 144.3466027210222 134.06341699516744 H 0.0 **** 0.06
4100 H 139.01238303640272 144.29334308546416 132.545589748265 H 0.0 **** 0.06
4101 C 42.148036698553994 196.9101001186221 110.05199694746688 C 0.0 **** -0.24
4102 H 43.10754197285962 196.39688763459566 110.12099891996718 H 0.0 **** 0.06
4103 H 41.86296162076502 197.00590071060034 109.00403504873128 H 0.0 **** 0.06
4104 H 42.233435474347914 197.90104123865177 110.49700190298134 H 0.0 **** 0.06
4105 H 41.38941699317439 196.33617418374993 110.58411333035548 H 0.0 **** 0.06
4106 C 94.31655802810289 99.72673850188113 59.75162370781956 C 0.0 **** -0.24
4107 H 94.71077391161558 98.71282838386514 59.81611231757978 H 0.0 **** 0.06
4108 H 94.16981141901431 100.1235481970997 60.756741713701786 H 0.0 **** 0.06
4109 H 93.36245545574184 99.71196670397705 59.22414406645356 H 0.0 **** 0.06
4110 H 95.02133317535373 100.35756135155157 59.21069932498153 H 0.0 **** 0.06
4111 C 65.9526271665676 101.23131846755098 89.87799049413977 C 0.0 **** -0.24
4112 H 66.77513145092132 101.88584077668685 90.16657138978553 H 0.0 **** 0.06
4113 H 66.2536386506531 100.62512378453334 89.02395667686719 H 0.0 **** 0.06
4114 H 65.08592406647671 101.83508384675508 89.60905224092545 H 0.0 **** 0.06
4115 H 65.69645927344743 100.58047087193529 90.71438998899205 H 0.0 **** 0.06
4116 C 104.7740655404751 179.4326315993879 108.49716806921836 C 0.0 **** -0.24
4117 H 104.68985189118487 178.4286186154949 108.91475842152155 H 0.0 **** 0.06
4118 H 105.71133400035532 179.51972243797533 107.94736746229569 H 0.0 **** 0.06
4119 H 104.75653371786606 180.1636855947297 109.30457833805374 H 0.0 **** 0.06
4120 H 103.93830698896605 179.6162978421803 107.82165785713474 H 0.0 **** 0.06
4121 C 141.46574313922432 95.90228297635838 141.68035045844312 C 0.0 **** -0.24
4122 H 142.05083513832705 96.7040153311126 141.2312455284214 H 0.0 **** 0.06
4123 H 142.0348108149742 94.9720865822473 141.64199182732526 H 0.0 **** 0.06
4124 H 140.53308331241155 95.78053536517132 141.1286414140614 H 0.0 **** 0.06
4125 H 141.24475019978203 96.1502630290737 142.7178607800717 H 0.0 **** 0.06
4126 C 30.753971709869518 175.9694326384374 16.57250698087178 C 0.0 **** -0.24
4127 H 31.699469890365947 176.39975848378006 16.24382397263969 H 0.0 **** 0.06
4128 H 30.754130297417277 174.8976030211192 16.37401030290603 H 0.0 **** 0.06
4129 H 29.932944212646476 176.43940979029 16.03213490227364 H 0.0 **** 0.06
4130 H 30.62963696556301 176.14043810991447 17.641684083500763 H 0.0 **** 0.06
4131 C 90.19705606652514 2.8179938533705595 144.92080053484688 C 0.0 **** -0.24
4132 H 90.00985291111851 3.855131389484896 144.64218718819666 H 0.0 **** 0.06
4133 H 89.25167454755507 2.2765430319394753 144.96219480106993 H 0.0 **** 0.06
4134 H 90.67788585783012 2.7863179568388077 145.89842573319888 H 0.0 **** 0.06
4135 H 90.84859430033646 2.3547717792383054 144.17924073186825 H 0.0 **** 0.06
4136 C 191.313049164434 50.282060612386815 92.02608081301241 C 0.0 **** -0.24
4137 H 192.2224049026848 50.3369737230489 91.42749549990526 H 0.0 **** 0.06
4138 H 190.65571348783396 49.51461685766046 91.61713634475586 H 0.0 **** 0.06
4139 H 190.80518470265093 51.24604597161634 92.0040447323646 H 0.0 **** 0.06
4140 H 191.5705713664263 50.02981499097166 93.05489865450954 H 0.0 **** 0.06
4141 C 10.878160530097972 43.96136531954113 193.93131194017135 C 0.0 **** -0.24
4142 H 10.087274484332987 43.627317537691766 193.25957685174242 H 0.0 **** 0.06
4143 H 11.800081352212167 43.427404331306406 193.70087248117053 H 0.0 **** 0.06
4144 H 10.588238933215926 43.75885989598902 194.96282719682497 H 0.0 **** 0.06
4145 H 11.035757717510464 45.03235256703772 193.80230754879364 H 0.0 **** 0.06
4146 C 93.69941102400162 178.70164737186337 88.60135939244816 C 0.0 **** -0.24
4147 H 94.70638646501538 179.02522362363365 88.3398129695666 H 0.0 **** 0.06
4148 H 93.62628987467531 178.58288663007954 89.68377979623696 H 0.0 **** 0.06
4149 H 93.48651840374373 177.7492486316604 88.11579471552386 H 0.0 **** 0.06
4150 H 92.9794739003587 179.4496097475384 88.26865905827881 H 0.0 **** 0.06
4151 C 56.31086885577918 120.4317816567077 24.390422456480593 C 0.0 **** -0.24
4152 H 57.10307337168706 120.7452283132778 25.07050692637233 H 0.0 **** 0.06
4153 H 55.72945214672035 121.3022288122186 24.084312883197043 H 0.0 **** 0.06
4154 H 55.66015370901067 119.71854335350983 24.896293588003857 H 0.0 **** 0.06
4155 H 56.75151830448283 119.96142666022266 23.511199543763354 H 0.0 **** 0.06
4156 C 132.51994440051737 38.73571916283373 181.56977919219509 C 0.0 **** -0.24
4157 H 133.24703334553521 39.188099883375344 182.24468292397486 H 0.0 **** 0.06
4158 H 132.82341238612537 37.71422643292925 181.3404617978982 H 0.0 **** 0.06
4159 H 132.4703985892014 39.31660820623978 180.64864140651483 H 0.0 **** 0.06
4160 H 131.53954153378697 38.72702832364263 182.04638214784273 H 0.0 **** 0.06
4161 C 135.21524165016365 80.9354470008702 6.735030116955301 C 0.0 **** -0.24
4162 H 135.7694253450867 80.94749867804936 7.672498425040658 H 0.0 **** 0.06
4163 H 134.44727379735946 81.70924702042026 6.756907250474882 H 0.0 **** 0.06
4164 H 134.74511176039988 79.96079620038142 6.603002117732217 H 0.0 **** 0.06
4165 H 135.8979725469685 81.12481963945797 5.907191852987637 H 0.0 **** 0.06
4166 C 145.41273481723024 135.80998202324653 90.55686404614877 C 0.0 **** -0.24
4167 H 145.17398107593888 136.75123312571006 91.05195867840794 H 0.0 **** 0.06
4168 H 145.97404122148083 135.1719995574058 91.2395156235344 H 0.0 **** 0.06
4169 H 146.01328319197964 136.00942902693697 89.6686781135962 H 0.0 **** 0.06
4170 H 144.48936342653226 135.3085060929318 90.26575776942906 H 0.0 **** 0.06
4171 C 6.853723549388064 89.35571757942185 76.27922631252083 C 0.0 **** -0.24
4172 H 6.178979022705171 90.09125745515445 76.7161354306514 H 0.0 **** 0.06
4173 H 6.418546338859848 88.96625486934718 75.35901749400952 H 0.0 **** 0.06
4174 H 7.0051916417099775 88.53822016853519 76.98382057434252 H 0.0 **** 0.06
4175 H 7.810897947918789 89.82747037924 76.05742878047181 H 0.0 **** 0.06
4176 C 145.40644565961566 108.21104488440005 116.65470418537592 C 0.0 **** -0.24
4177 H 145.16760758327223 108.70944033888645 115.7146685220487 H 0.0 **** 0.06
4178 H 145.1150440737872 108.84934779785215 117.48868810840514 H 0.0 **** 0.06
4179 H 146.47856086067173 108.01901049587161 116.70029451078543 H 0.0 **** 0.06
4180 H 144.86503469663822 107.26659099416247 116.7115962427894 H 0.0 **** 0.06
4181 C 57.449489784926584 121.4795213783886 57.27504483734174 C 0.0 **** -0.24
4182 H 57.76664987666027 122.40158486910389 57.76327951513821 H 0.0 **** 0.06
4183 H 56.360800873008145 121.41406896772153 57.295023745650724 H 0.0 **** 0.06
4184 H 57.87526471657361 120.62497668220314 57.80069181619274 H 0.0 **** 0.06
4185 H 57.795341013711436 121.47918150515008 56.24128301847807 H 0.0 **** 0.06
4186 C 69.93697276592206 63.72667687580365 154.6929136949254 C 0.0 **** -0.24
4187 H 70.61482389689905 62.924019952663144 154.98230508563762 H 0.0 **** 0.06
4188 H 69.47949430002006 63.48826601608751 153.7325312683427 H 0.0 **** 0.06
4189 H 70.49369338935014 64.65994897325747 154.60897908198143 H 0.0 **** 0.06
4190 H 69.1591105330487 63.83533367763515 155.44865619518632 H 0.0 **** 0.06
4191 C 67.2207089924292 198.77170659890947 126.02593837592144 C 0.0 **** -0.24
4192 H 66.40942043609627 199.0733378474099 125.36314417067788 H 0.0 **** 0.06
4193 H 66.94630341208357 197.85112018227983 126.54062459119527 H 0.0 **** 0.06
4194 H 67.40098498309248 199.5583964629325 126.75932731226868 H 0.0 **** 0.06
4195 H 68.12547171165666 198.6071979547624 125.44106146374696 H 0.0 **** 0.06
4196 C 34.52134330700227 140.62556088079057 7.193358369093659 C 0.0 **** -0.24
4197 H 34.41971602066104 140.82666922679604 6.127291301682135 H 0.0 **** 0.06
4198 H 33.5835145637368 140.22039299101644 7.5771812116347235 H 0.0 **** 0.06
4199 H 34.758677656186705 141.55119426299316 7.7178981048043624 H 0.0 **** 0.06
4200 H 35.320948565005835 139.9019580643671 7.352308300315457 H 0.0 **** 0.06
4201 C 88.9977318884844 147.03974867272152 136.82569961283403 C 0.0 **** -0.24
4202 H 89.6303216629168 147.90849405299286 136.6431637912669 H 0.0 **** 0.06
4203 H 89.19313964862954 146.6528609402311 137.82620767823346 H 0.0 **** 0.06
4204 H 89.21702876066809 146.2684518438425 136.08769639066895 H 0.0 **** 0.06
4205 H 87.95032685192302 147.33129205936777 136.7469796747347 H 0.0 **** 0.06
4206 C 106.62726609139088 153.08576062631795 33.06109960977608 C 0.0 **** -0.24
4207 H 107.33793273689625 153.84445321715407 32.73221487377907 H 0.0 **** 0.06
4208 H 106.25676564199915 152.53704782298811 32.19415416815082 H 0.0 **** 0.06
4209 H 105.79337062469983 153.56579269652198 33.57121645892357 H 0.0 **** 0.06
4210 H 107.12262188164769 152.3954817056264 33.74345385895273 H 0.0 **** 0.06
4211 C 126.86347068274839 102.02392132950675 94.37237303692035 C 0.0 **** -0.24
4212 H 127.12555390964934 101.40323436819341 95.22935889808798 H 0.0 **** 0.06
4213 H 127.45419908616023 102.93891737121928 94.3929119489627 H 0.0 **** 0.06
4214 H 125.80309220421614 102.27448299594712 94.41639618933766 H 0.0 **** 0.06
4215 H 127.06933157957099 101.4768324679805 93.45229817382915 H 0.0 **** 0.06
4216 C 102.71143318442034 91.4065578825469 95.46678898958325 C 0.0 **** -0.24
4217 H 102.01293183934521 90.6010368807548 95.69269707367897 H 0.0 **** 0.06
4218 H 102.75381801884893 92.09671159936852 96.3091565141402 H 0.0 **** 0.06
4219 H 102.37537069353894 91.93904742847491 94.5761916611452 H 0.0 **** 0.06
4220 H 103.70212627942217 90.98852472116573 95.28812967487377 H 0.0 **** 0.06
4221 C 155.01498329249 35.95213912383551 94.69728693060347 C 0.0 **** -0.24
4222 H 154.9050214734009 36.678347723970745 93.8912359562519 H 0.0 **** 0.06
4223 H 155.16190833686454 34.9587005003993 94.27298465086369 H 0.0 **** 0.06
4224 H 154.11676498730753 35.95536733323783 95.31469533273113 H 0.0 **** 0.06
4225 H 155.87800684899122 36.218136358890845 95.3088566536795 H 0.0 **** 0.06
4226 C 100.52778735018748 1.7592865496185652 109.47656693293641 C 0.0 **** -0.24
4227 H 99.6339177850881 1.3300712394274115 109.02379093612899 H 0.0 **** 0.06
4228 H 100.6344004662414 2.796554148471472 109.15768564927151 H 0.0 **** 0.06
4229 H 101.40261285533046 1.1895239004078348 109.16227796566324 H 0.0 **** 0.06
4230 H 100.43916445649052 1.719343288965348 110.56211941717481 H 0.0 **** 0.06
4231 C 162.50381435874488 118.84987346688877 193.4113668266767 C 0.0 **** -0.24
4232 H 162.12524341910827 119.87193371095532 193.39713362595268 H 0.0 **** 0.06
4233 H 163.49992423882242 118.82552050271966 192.96804442759273 H 0.0 **** 0.06
4234 H 161.8353945445716 118.20715977090504 192.83740971583666 H 0.0 **** 0.06
4235 H 162.55444196850104 118.4958212763895 194.44063236899592 H 0.0 **** 0.06
4236 C 121.91447217565025 28.70756548818393 14.582501347754032 C 0.0 **** -0.24
4237 H 121.83357409216393 29.760779685828766 14.852408828652813 H 0.0 **** 0.06
4238 H 122.76845970270674 28.56681475531431 13.920433977450841 H 0.0 **** 0.06
4239 H 121.00372424505514 28.391325793703416 14.074352416966093 H 0.0 **** 0.06
4240 H 122.05262236878991 28.11120513843538 15.485205935224315 H 0.0 **** 0.06
4241 C 38.499382667986694 123.72715146928596 160.44761528101293 C 0.0 **** -0.24
4242 H 38.14189492347633 122.85406567780873 160.99347917825781 H 0.0 **** 0.06
4243 H 38.65895256109219 123.46178766874235 159.40255873555114 H 0.0 **** 0.06
4244 H 39.43886148200647 124.0678516809852 160.88344393747735 H 0.0 **** 0.06
4245 H 37.759547716213646 124.52397047053793 160.51205416319894 H 0.0 **** 0.06
4246 C 161.47174183387992 71.5927592644884 27.315493843034915 C 0.0 **** -0.24
4247 H 161.36037733969593 71.13761330270242 26.331703839976285 H 0.0 **** 0.06
4248 H 161.3253856755615 70.83450593599258 28.08534348243336 H 0.0 **** 0.06
4249 H 160.7295846895953 72.38251393592552 27.435618913559097 H 0.0 **** 0.06
4250 H 162.47150995763153 72.01747483606813 27.408392034596204 H 0.0 **** 0.06
4251 C 135.4654295532682 69.87914657727401 141.54592147899146 C 0.0 **** -0.24
4252 H 134.47861353972672 70.20223418592326 141.2144818410103 H 0.0 **** 0.06
4253 H 135.7620295466831 68.98940368105417 140.98992892626177 H 0.0 **** 0.06
4254 H 135.43193818547988 69.64832106157996 142.6112602133233 H 0.0 **** 0.06
4255 H 136.18767258308574 70.67619124377569 141.36964758602807 H 0.0 **** 0.06
4256 C 150.30781333956793 38.18423900019479 158.32007300572187 C 0.0 **** -0.24
4257 H 150.4421738501471 38.38479198492274 159.38279094851592 H 0.0 **** 0.06
4258 H 149.67406159574227 37.306741867897074 158.19330872092604 H 0.0 **** 0.06
4259 H 151.2792318843977 38.00136957234665 157.85889245346456 H 0.0 **** 0.06
4260 H 149.83656435890592 39.04471643654787 157.8443234099044 H 0.0 **** 0.06
4261 C 28.29953796370441 131.33088864140566 115.79029718642266 C 0.0 **** -0.24
4262 H 27.507597243625924 131.0540628590771 116.4865048229932 H 0.0 **** 0.06
4263 H 29.035314218641133 130.52869678734118 115.73953105299972 H 0.0 **** 0.06
4264 H 28.781900126424887 132.24587457973735 116.13349705439731 H 0.0 **** 0.06
4265 H 27.872231625839504 131.49540463199864 114.80092340783648 H 0.0 **** 0.06
4266 C 17.160080097050653 175.38773248293347 179.39074331155015 C 0.0 **** -0.24
4267 H 16.46890379485238 176.0212709983952 178.83473705799634 H 0.0 **** 0.06
4268 H 17.06557701395755 174.3570180189516 179.04647658276207 H 0.0 **** 0.06
4269 H 16.92371966686858 175.4380253758698 180.45405468376575 H 0.0 **** 0.06
4270 H 18.1807933766937 175.73288486280353 179.22882080427132 H 0.0 **** 0.06
4271 C 89.75386965494704 79.82982688326342 176.68593330111622 C 0.0 **** -0.24
4272 H 89.20882598304209 80.42447544954317 177.41957979519827 H 0.0 **** 0.06
4273 H 89.15351934010033 78.96530241137722 176.40111294099216 H 0.0 **** 0.06
4274 H 90.6957731667388 79.4934138009281 177.11795953998876 H 0.0 **** 0.06
4275 H 89.95594441224344 80.4385821496557 175.80412520413404 H 0.0 **** 0.06
4276 C 52.88277054501222 144.35638112646984 182.87731098189516 C 0.0 **** -0.24
4277 H 52.91566102716058 145.0746868948754 183.69641153662013 H 0.0 **** 0.06
4278 H 52.550649184865364 143.38941260229205 183.2550926074758 H 0.0 **** 0.06
4279 H 53.87786985033247 144.25543099555688 182.4435989403527 H 0.0 **** 0.06
4280 H 52.18779587927992 144.7070541267832 182.1138626479672 H 0.0 **** 0.06
4281 C 167.6423401166459 195.69865188825523 188.93635169026007 C 0.0 **** -0.24
4282 H 168.55838687690658 195.11733123645962 188.82775918732483 H 0.0 **** 0.06
4283 H 166.7938831220701 195.02167103063996 189.04288037180555 H 0.0 **** 0.06
4284 H 167.50124558780567 196.3221605135645 188.05291067194793 H 0.0 **** 0.06
4285 H 167.71636232192543 196.33215263188697 189.81984090193222 H 0.0 **** 0.06
4286 C 181.5108398703976 186.7626286241152 112.43013524955563 C 0.0 **** -0.24
4287 H 181.52667593973268 186.5190210230314 113.49312785028485 H 0.0 **** 0.06
4288 H 180.48614134780473 186.96356858709967 112.11915015401462 H 0.0 **** 0.06
4289 H 181.9060284501426 185.92129052357743 111.85999851991338 H 0.0 **** 0.06
4290 H 182.12537675518124 187.64405903158536 112.25167376889945 H 0.0 **** 0.06
4291 C 48.70852576358732 120.48950839649535 108.92477471304392 C 0.0 **** -0.24
4292 H 49.73053213116805 120.43967727747605 108.55097330000325 H 0.0 **** 0.06
4293 H 48.02415671053882 120.64316400558255 108.0909260352422 H 0.0 **** 0.06
4294 H 48.61866509421259 121.31780762210963 109.62737853376564 H 0.0 **** 0.06
4295 H 48.461249087194915 119.55534454004419 109.43058777189742 H 0.0 **** 0.06
4296 C 173.38926253645772 48.36823673194341 86.91457287116805 C 0.0 **** -0.24
4297 H 173.24197020551844 48.54434168365283 85.8492298803501 H 0.0 **** 0.06
4298 H 173.66826079210477 47.32696719768852 87.07573555824979 H 0.0 **** 0.06
4299 H 172.4646507126045 48.58325901440274 87.44963273796378 H 0.0 **** 0.06
4300 H 174.1829421139922 49.01909524936693 87.2846359096734 H 0.0 **** 0.06
4301 C 123.11209553232302 158.59361937483123 173.0444533798192 C 0.0 **** -0.24
4302 H 123.70367724409016 158.17108515587847 173.8561938431747 H 0.0 **** 0.06
4303 H 122.88094936738696 157.81303684690968 172.31959542749252 H 0.0 **** 0.06
4304 H 123.67825080004619 159.3870797568233 172.55649383249386 H 0.0 **** 0.06
4305 H 122.18522733649107 159.0030624597832 173.44722677579102 H 0.0 **** 0.06
4306 C 196.95723522429603 11.301861761521153 114.22722035366604 C 0.0 **** -0.24
4307 H 197.45103149067037 12.27284219056768 114.2584761614344 H 0.0 **** 0.06
4308 H 195.967051356276 11.384497768788364 114.67499694254255 H 0.0 **** 0.06
4309 H 197.54959242450326 10.57551386190184 114.78469356657618 H 0.0 **** 0.06
4310 H 196.8620462931442 10.97529236499458 113.19166437806919 H 0.0 **** 0.06
4311 C 104.14710218706841 184.585663994198 112.45602726766947 C 0.0 **** -0.24
4312 H 104.40031076253752 184.21716616426716 111.46181881142945 H 0.0 **** 0.06
4313 H 103.51223601623502 183.85762276028447 112.96227583996762 H 0.0 **** 0.06
4314 H 103.61502369841168 185.53289464852875 112.3680087940026 H 0.0 **** 0.06
4315 H 105.05968456034762 184.73424766404173 113.03238476531655 H 0.0 **** 0.06
4316 C 45.42679421051636 71.53404744061528 86.55843831866252 C 0.0 **** -0.24
4317 H 46.01640978739448 70.78081067463174 86.03769031157381 H 0.0 **** 0.06
4318 H 44.37434994164741 71.41586095848595 86.29894512628329 H 0.0 **** 0.06
4319 H 45.76527582955953 72.52776310160179 86.26429877544865 H 0.0 **** 0.06
4320 H 45.55170712373629 71.41207323305134 87.63518098849542 H 0.0 **** 0.06
4321 C 77.10518756210737 20.79561004880901 86.47693553304242 C 0.0 **** -0.24
4322 H 76.4695465364015 20.060261738106817 85.98483899220378 H 0.0 **** 0.06
4323 H 77.20164628114641 21.677076386442195 85.84198630470974 H 0.0 **** 0.06
4324 H 78.09112768363354 20.36393339313895 86.6515237381841 H 0.0 **** 0.06
4325 H 76.6604082928084 21.081564649471943 87.43035677325474 H 0.0 **** 0.06
4326 C 117.07114978174712 112.64570513804813 7.431138952775996 C 0.0 **** -0.24
4327 H 117.4255376326388 113.43409772618918 8.095249683363164 H 0.0 **** 0.06
4328 H 117.869144129083 112.36386589826441 6.743232435965389 H 0.0 **** 0.06
4329 H 116.21283794641909 113.00637826670805 6.864863970218515 H 0.0 **** 0.06
4330 H 116.777155564689 111.77725685342955 8.021917839647557 H 0.0 **** 0.06
4331 C 50.76206083905633 8.599242363069436 181.5411779748599 C 0.0 **** -0.24
4332 H 50.50651559601728 9.656878885383833 181.47678623223754 H 0.0 **** 0.06
4333 H 51.30853892237205 8.301321425852109 180.64607322518845 H 0.0 **** 0.06
4334 H 49.84837911604784 8.00878100863224 181.62314641485915 H 0.0 **** 0.06
4335 H 51.383572323761925 8.429193183403754 182.42039036984116 H 0.0 **** 0.06
4336 C 101.43671274371644 84.25303306578951 150.78366769607362 C 0.0 **** -0.24
4337 H 101.93800979657289 83.34405333737868 150.45118190660338 H 0.0 **** 0.06
4338 H 100.43169529651149 84.2881967071969 150.36252859385917 H 0.0 **** 0.06
4339 H 102.00261666785428 85.1221149851956 150.45078331563718 H 0.0 **** 0.06
4340 H 101.37496078619128 84.25513616781865 151.87214965092173 H 0.0 **** 0.06
4341 C 137.97142969471508 181.94699785938164 15.673467404147118 C 0.0 **** -0.24
4342 H 137.57362892860968 182.79867198307983 16.225369045505914 H 0.0 **** 0.06
4343 H 138.0068408969896 181.0758717777643 16.328467481583147 H 0.0 **** 0.06
4344 H 138.9768639532643 182.17894267900522 15.321894881061382 H 0.0 **** 0.06
4345 H 137.3271996188147 181.7343052469441 14.820023700199272 H 0.0 **** 0.06
4346 C 165.14929315277138 58.0099010997975 35.53525508624023 C 0.0 **** -0.24
4347 H 165.20799849519238 57.71164049184358 34.4884848270479 H 0.0 **** 0.06
4348 H 165.13378617365123 57.120556462298794 36.16580670673963 H 0.0 **** 0.06
4349 H 164.23974314426158 58.587575867219044 35.6977429691116 H 0.0 **** 0.06
4350 H 166.01686393126198 58.61945631897984 35.787814108436635 H 0.0 **** 0.06
4351 C 122.17746073087577 25.6170632421032 82.09939513698487 C 0.0 **** -0.24
4352 H 122.92678433791673 25.26325275447107 82.80770648021905 H 0.0 **** 0.06
4353 H 122.22871260268732 26.703051685465596 82.02890397223695 H 0.0 **** 0.06
4354 H 121.1856139487318 25.320353913570727 82.441773929085 H 0.0 **** 0.06
4355 H 122.37039092032927 25.178786440107956 81.11979823681912 H 0.0 **** 0.06
4356 C 187.7028294886202 27.618855195474055 6.144441643731 C 0.0 **** -0.24
4357 H 188.23809836437434 27.600159456773383 7.093808476720405 H 0.0 **** 0.06
4358 H 188.0437491182274 26.79228839214568 5.520313590381036 H 0.0 **** 0.06
4359 H 187.89718732370184 28.56274347281925 5.635782013194579 H 0.0 **** 0.06
4360 H 186.6331338626909 27.518668296524424 6.329218651333228 H 0.0 **** 0.06
4361 C 38.88354389344545 118.16087495237136 74.31704217321038 C 0.0 **** -0.24
4362 H 39.93021140241335 117.98603295408051 74.56532643679355 H 0.0 **** 0.06
4363 H 38.715442476656634 119.23137753830011 74.19125723072591 H 0.0 **** 0.06
4364 H 38.2514426195939 117.7848887960705 75.12145131650186 H 0.0 **** 0.06
4365 H 38.63901270932524 117.6434105755099 73.38951977680745 H 0.0 **** 0.06
4366 C 26.54804898089091 74.49074085667995 65.19043133292206 C 0.0 **** -0.24
4367 H 26.09458291395765 73.56236373015011 64.84310566376043 H 0.0 **** 0.06
4368 H 25.832506071358466 75.03857745067839 65.80249102270864 H 0.0 **** 0.06
4369 H 26.833549858739417 75.09871616058328 64.33219712685565 H 0.0 **** 0.06
4370 H 27.43404110377952 74.26163707582432 65.78414181651564 H 0.0 **** 0.06
4371 C 127.6571923772101 86.10563083052344 130.1747030098002 C 0.0 **** -0.24
4372 H 127.66606477046093 87.15337407422257 129.8727244038788 H 0.0 **** 0.06
4373 H 128.3882214797868 85.94920244603122 130.9681028456627 H 0.0 **** 0.06
4374 H 127.90935168268345 85.47965284773912 129.3189490005175 H 0.0 **** 0.06
4375 H 126.66362807753399 85.84151164973295 130.53791471016737 H 0.0 **** 0.06
4376 C 95.96885295631347 120.3551581369743 108.67243736433528 C 0.0 **** -0.24
4377 H 95.17480204072288 120.83542666494054 109.24426947975311 H 0.0 **** 0.06
4378 H 96.03114644657833 120.81126880265447 107.6836000172666 H 0.0 **** 0.06
4379 H 95.75029337236955 119.2918718715299 108.56955040574158 H 0.0 **** 0.06
4380 H 96.91799062290349 120.48277690431445 109.19200911186641 H 0.0 **** 0.06
4381 C 50.02685649792534 89.66388579833335 86.55076057669922 C 0.0 **** -0.24
4382 H 50.702628767239844 89.79621921933011 87.3963795292392 H 0.0 **** 0.06
4383 H 50.22856095452673 90.43116936185595 85.80259017451709 H 0.0 **** 0.06
4384 H 48.99586796787162 89.75280925708648 86.89346738409094 H 0.0 **** 0.06
4385 H 50.181564150659455 88.67812070633431 86.11281149954769 H 0.0 **** 0.06
4386 C 171.82721473356673 57.847043680295144 183.19229876309697 C 0.0 **** -0.24
4387 H 172.34052981627505 58.71346847167655 182.77668913444342 H 0.0 **** 0.06
4388 H 171.4772349079524 58.080726264323786 184.19828846268445 H 0.0 **** 0.06
4389 H 172.51587678881373 57.00259418066551 183.234302577915 H 0.0 **** 0.06
4390 H 170.97658780700488 57.590757939504044 182.5618456694224 H 0.0 **** 0.06
4391 C 30.594513227788397 131.4118743244402 89.34765571228618 C 0.0 **** -0.24
4392 H 30.398633079589843 132.37955176877233 89.80896472174106 H 0.0 **** 0.06
4393 H 30.329090758515022 130.61636682488188 90.04426925149039 H 0.0 **** 0.06
4394 H 31.652598287256808 131.33684910499824 89.0961703001206 H 0.0 **** 0.06
4395 H 29.99772940136768 131.31589940340052 88.4399412266425 H 0.0 **** 0.06
4396 C 154.05059949764708 86.10069012286627 24.784263761342586 C 0.0 **** -0.24
4397 H 153.7777752723939 85.13747165814377 25.216085282843864 H 0.0 **** 0.06
4398 H 153.29518918828296 86.84266600665308 25.046673319912827 H 0.0 **** 0.06
4399 H 154.10833104861916 86.0091330437146 23.6996942386519 H 0.0 **** 0.06
4400 H 155.0186788475295 86.41344111325503 25.174953999846906 H 0.0 **** 0.06
4401 C 69.51731754764626 80.06634448477664 104.22362329782462 C 0.0 **** -0.24
4402 H 69.23556153804805 79.10832081343219 103.78539515732919 H 0.0 **** 0.06
4403 H 69.08988683921024 80.14808983614287 105.2234124695218 H 0.0 **** 0.06
4404 H 69.13998207581068 80.87575638826954 103.59892658144551 H 0.0 **** 0.06
4405 H 70.60305696170713 80.13144982236736 104.28622424042135 H 0.0 **** 0.06
4406 C 17.459862704415244 162.55680348511137 10.424444034363056 C 0.0 **** -0.24
4407 H 16.48499919974553 162.09961663083703 10.596147343219265 H 0.0 **** 0.06
4408 H 17.71405256537946 163.19672832888938 11.269431248237375 H 0.0 **** 0.06
4409 H 17.425233562742136 163.15492771822085 9.513473166465381 H 0.0 **** 0.06
4410 H 18.213267989907862 161.7765487875655 10.318899004676453 H 0.0 **** 0.06
4411 C 26.045289090105697 191.28526731652246 193.85543254293066 C 0.0 **** -0.24
4412 H 25.722313131291372 192.3254580970505 193.82698379554535 H 0.0 **** 0.06
4413 H 25.319441806544376 190.66479155430707 193.3304047162987 H 0.0 **** 0.06
4414 H 26.122638420083533 190.956928299994 194.8924331584418 H 0.0 **** 0.06
4415 H 27.01878901173886 191.19356696963143 193.37279743051903 H 0.0 **** 0.06
4416 C 54.85222528688257 193.50591492704913 16.31712669039942 C 0.0 **** -0.24
4417 H 55.01273155468846 192.84572027249175 17.170303383283454 H 0.0 **** 0.06
4418 H 54.28041680116755 192.9784564343681 15.553318935254936 H 0.0 **** 0.06
4419 H 55.81460558726286 193.81011444394184 15.907694820890612 H 0.0 **** 0.06
4420 H 54.29883369628976 194.38801174229468 16.640625774620588 H 0.0 **** 0.06
4421 C 157.4645282506505 104.48709173303826 128.72662939309822 C 0.0 **** -0.24
4422 H 158.1529830552245 104.80795031624905 127.9440973110967 H 0.0 **** 0.06
4423 H 158.0196427900411 104.31427665793402 129.6491533771652 H 0.0 **** 0.06
4424 H 156.97159314582473 103.56493491331 128.42138452309126 H 0.0 **** 0.06
4425 H 156.71633414518226 105.26294965451854 128.89183462571333 H 0.0 **** 0.06
4426 C 0.37143518128297615 115.61966960224765 16.692289680083604 C 0.0 **** -0.24
4427 H -0.31189032931638394 115.47575299711309 15.855315402601263 H 0.0 **** 0.06
4428 H 1.3011056269047572 115.08342281402929 16.49730259035404 H 0.0 **** 0.06
4429 H -0.08567071803201998 115.23453253082408 17.6044948890692 H 0.0 **** 0.06
4430 H 0.5813210321607869 116.68210054383269 16.812031425971185 H 0.0 **** 0.06
4431 C 97.79747580635723 144.28911808874497 14.026288779218504 C 0.0 **** -0.24
4432 H 97.65136846368134 144.2870597432748 15.10642816323056 H 0.0 **** 0.06
4433 H 98.83370543336827 144.53992496192473 13.801273807206059 H 0.0 **** 0.06
4434 H 97.13762423134986 145.02763729524978 13.572663459991219 H 0.0 **** 0.06
4435 H 97.56673555991964 143.30124528808778 13.626890528559557 H 0.0 **** 0.06
4436 C 96.62509129741892 190.7253250687524 131.79770352998366 C 0.0 **** -0.24
4437 H 96.30389600109874 190.4821021247679 130.78508126310447 H 0.0 **** 0.06
4438 H 97.69936262405088 190.56157560510735 131.88760308890565 H 0.0 **** 0.06
4439 H 96.09885206875643 190.08677797557283 132.5082452932997 H 0.0 **** 0.06
4440 H 96.39693342742606 191.76943266706397 132.01039574386402 H 0.0 **** 0.06
4441 C 6.817614921143367 61.58076228489924 92.24821268600695 C 0.0 **** -0.24
4442 H 7.7577601583276845 61.48474398545693 92.7919682522161 H 0.0 **** 0.06
4443 H 6.916896410519847 62.354691761096745 91.4870431672754 H 0.0 **** 0.06
4444 H 6.022550643493879 61.851446370093186 92.94283171701125 H 0.0 **** 0.06
4445 H 6.575955376449691 60.630889105749304 91.7707597548081 H 0.0 **** 0.06
4446 C 43.1652158080163 0.47700529859588414 166.75396793475556 C 0.0 **** -0.24
4447 H 43.64415251131638 0.6220309279602247 165.78637873895917 H 0.0 **** 0.06
4448 H 43.30143815099828 -0.5553938324976571 167.0760365460528 H 0.0 **** 0.06
4449 H 42.100002357023925 0.6929383382399692 166.66748138467227 H 0.0 **** 0.06
4450 H 43.61427970415181 1.1483833206828535 167.48609760760374 H 0.0 **** 0.06
4451 C 64.74074654706611 2.3126452469223864 127.55492832358593 C 0.0 **** -0.24
4452 H 63.88996038982624 2.6313936352847804 126.95213310381627 H 0.0 **** 0.06
4453 H 65.05180214319658 1.3151117214774217 127.24398946638857 H 0.0 **** 0.06
4454 H 64.45286990048554 2.293234594869432 128.60654896243233 H 0.0 **** 0.06
4455 H 65.56511405007588 3.0115138344452816 127.41681395982101 H 0.0 **** 0.06
4456 C 176.03691244988468 107.09056392909253 170.3346275726364 C 0.0 **** -0.24
4457 H 177.10757934030445 107.29215835779155 170.30896109386637 H 0.0 **** 0.06
4458 H 175.51334823611256 107.8347737144837 169.7334628538992 H 0.0 **** 0.06
4459 H 175.6828320893863 107.14074819141035 171.36438692541873 H 0.0 **** 0.06
4460 H 175.84479824843186 106.09604887726084 169.9316329902131 H 0.0 **** 0.06
4461 C 97.52628040914263 147.00081200340261 141.1399192038843 C 0.0 **** -0.24
4462 H 97.54559545977554 146.11972748524448 140.49951647525373 H 0.0 **** 0.06
4463 H 96.88184726051566 147.75988603442394 140.69568927423467 H 0.0 **** 0.06
4464 H 98.5366121877309 147.39760419809366 141.24361757633977 H 0.0 **** 0.06
4465 H 97.1421563586523 146.7276064516193 142.12293402140946 H 0.0 **** 0.06
4466 C 39.34754995929302 197.83862008185386 36.042756577713845 C 0.0 **** -0.24
4467 H 39.671983200857284 198.46235607756984 36.87672851892415 H 0.0 **** 0.06
4468 H 40.22094881645455 197.42343778720152 35.539950671840856 H 0.0 **** 0.06
4469 H 38.77465695272711 198.44091889938358 35.339078826757714 H 0.0 **** 0.06
4470 H 38.72403528826156 197.0272072498953 36.41868258330496 H 0.0 **** 0.06
4471 C 135.10399314720866 88.5600790374649 75.19979420144662 C 0.0 **** -0.24
4472 H 135.16803919273104 89.64815462774425 75.20093186075125 H 0.0 **** 0.06
4473 H 135.30552803245632 88.18497348305516 74.19608148875132 H 0.0 **** 0.06
4474 H 134.10400681914206 88.25494948062374 75.50800513388506 H 0.0 **** 0.06
4475 H 135.83796565538853 88.15196536097369 75.8950173868757 H 0.0 **** 0.06
4476 C 54.40841792566343 121.02384603465345 27.24278671832198 C 0.0 **** -0.24
4477 H 53.82123410700626 121.07944827628751 28.159465090355795 H 0.0 **** 0.06
4478 H 53.748751552543425 120.80848593892978 26.40184676741802 H 0.0 **** 0.06
4479 H 55.15095218096896 120.2320841665254 27.334915305547497 H 0.0 **** 0.06
4480 H 54.91145304872123 121.97672061609501 27.076154206448777 H 0.0 **** 0.06
4481 C 112.47766513312754 6.499461977434564 24.64461745812514 C 0.0 **** -0.24
4482 H 112.7839330788677 7.062548196642361 25.525934385410096 H 0.0 **** 0.06
4483 H 112.66862904739779 5.438247175085337 24.807238583448708 H 0.0 **** 0.06
4484 H 113.04519464010033 6.842581963607387 23.779193497986 H 0.0 **** 0.06
4485 H 111.41376977030487 6.654101631267672 24.46576581658732 H 0.0 **** 0.06
4486 C 106.908290184804 118.9351626646027 41.364994431910304 C 0.0 **** -0.24
4487 H 107.06341422410708 118.27019189148012 40.515040846150384 H 0.0 **** 0.06
4488 H 107.86016839200693 119.10988813948464 41.867530591731054 H 0.0 **** 0.06
4489 H 106.20757023718642 118.47546469947227 42.0624992951397 H 0.0 **** 0.06
4490 H 106.50204467478136 119.88345076975827 41.014397914360075 H 0.0 **** 0.06
4491 C 8.264669029521372 125.42346006436367 109.03820843711159 C 0.0 **** -0.24
4492 H 7.445286205948662 124.82923048091317 108.63354725035774 H 0.0 **** 0.06
4493 H 7.999131567089535 126.48081609646604 108.99811101365893 H 0.0 **** 0.06
4494 H 9.16371284411224 125.2514596367036 108.44787317897666 H 0.0 **** 0.06
4495 H 8.446981494690021 125.13290250257577 110.0723148763405 H 0.0 **** 0.06
4496 C 53.55801017658129 107.4246990309326 89.41936334501514 C 0.0 **** -0.24
4497 H 54.02614177518309 106.63495664993474 88.83160449593555 H 0.0 **** 0.06
4498 H 52.61861268467801 107.71813713593713 88.95018520610569 H 0.0 **** 0.06
4499 H 54.2258918185571 108.28513932833508 89.46686388959372 H 0.0 **** 0.06
4500 H 53.362369832132586 107.0601338270776 90.4278700399336 H 0.0 **** 0.06
4501 C 94.1763837371509 135.68325877718476 130.52559330599365 C 0.0 **** -0.24
4502 H 94.90932222145761 136.12611721054816 129.85043088733732 H 0.0 **** 0.06
4503 H 94.6302498870649 134.8461519652268 131.05538984341854 H 0.0 **** 0.06
4504 H 93.32146819605555 135.32878108775904 129.9494720729532 H 0.0 **** 0.06
4505 H 93.84526996458379 136.43247934388447 131.24405476905366 H 0.0 **** 0.06
4506 C 198.54577871423515 183.3334674180275 85.32469905837954 C 0.0 **** -0.24
4507 H 198.277323668783 182.40270930728622 84.82588256845494 H 0.0 **** 0.06
4508 H 199.4570904464834 183.73419383957872 84.87955529697808 H 0.0 **** 0.06
4509 H 198.71135914744877 183.143333185149 86.38442673249446 H 0.0 **** 0.06
4510 H 197.73679855294327 184.05450697775632 85.2069461957181 H 0.0 **** 0.06
4511 C 65.01798033082787 52.54753227180538 55.249139206936036 C 0.0 **** -0.24
4512 H 64.59234474128965 53.221126467770034 54.50604239999578 H 0.0 **** 0.06
4513 H 64.21588587214893 52.10932075705546 55.84338312895892 H 0.0 **** 0.06
4514 H 65.69089371174124 53.10493194298516 55.90175923357515 H 0.0 **** 0.06
4515 H 65.57335007993805 51.75574667119787 54.746209101428974 H 0.0 **** 0.06
4516 C 191.9433290587765 153.97913085997425 158.4898737900633 C 0.0 **** -0.24
4517 H 192.58587278814616 153.1279797907717 158.26458709497777 H 0.0 **** 0.06
4518 H 190.90034347835433 153.68841811787684 158.37078630696348 H 0.0 **** 0.06
4519 H 192.17319984476447 154.79806310720946 157.80744789506832 H 0.0 **** 0.06
4520 H 192.11605607836876 154.30289267636664 159.51585981726942 H 0.0 **** 0.06
4521 C 25.57744426342836 182.09779202668895 85.23087984446542 C 0.0 **** -0.24
4522 H 26.33208428462416 182.8835182996164 85.19182410708316 H 0.0 **** 0.06
4523 H 25.896954292410612 181.32106010535415 85.92593635637704 H 0.0 **** 0.06
4524 H 25.44938627494139 181.6679976622253 84.23781558631043 H 0.0 **** 0.06
4525 H 24.630839250670135 182.5208899350182 85.56861911457082 H 0.0 **** 0.06
4526 C 113.29373912302492 111.53909739083667 123.3488049654828 C 0.0 **** -0.24
4527 H 113.20053467502999 110.47663429139442 123.57389334192007 H 0.0 **** 0.06
4528 H 112.96654790458342 112.12270923128335 124.20912397735592 H 0.0 **** 0.06
4529 H 112.6738677470421 111.78298946858837 122.48678362819808 H 0.0 **** 0.06
4530 H 114.33484359338786 111.77291711252812 123.12543865274606 H 0.0 **** 0.06
4531 C 87.63698553645361 192.60829974111624 9.293402295438312 C 0.0 **** -0.24
4532 H 87.4946634534914 192.40963706653582 8.23140265458801 H 0.0 **** 0.06
4533 H 87.2491527851347 193.59843837925632 9.533074820771446 H 0.0 **** 0.06
4534 H 88.69913609648859 192.56631313510013 9.532481723856506 H 0.0 **** 0.06
4535 H 87.10373855185082 191.85718477730603 9.87753984974239 H 0.0 **** 0.06
4536 C 138.64256552606173 55.70121896463155 94.45452550288022 C 0.0 **** -0.24
4537 H 138.88511932044918 56.426604424301956 93.6772415795264 H 0.0 **** 0.06
4538 H 138.25085215142417 54.793339133382716 93.99407619949619 H 0.0 **** 0.06
4539 H 137.89328269625912 56.12287522863883 95.1241051519938 H 0.0 **** 0.06
4540 H 139.54318825162102 55.46232817519669 95.02089781679803 H 0.0 **** 0.06
4541 C 70.71575725699178 105.77694684219318 100.4950251392608 C 0.0 **** -0.24
4542 H 69.6628197494813 105.50432240069208 100.42259445065037 H 0.0 **** 0.06
4543 H 70.84043436043807 106.8216633572375 100.21075467195305 H 0.0 **** 0.06
4544 H 71.30113439636733 105.14563003894514 99.82668138277973 H 0.0 **** 0.06
4545 H 71.0577524300753 105.63577338728288 101.52029975566455 H 0.0 **** 0.06
4546 C 103.19045173202056 93.69272887240243 28.833413436824998 C 0.0 **** -0.24
4547 H 103.70631786911042 93.1333553624057 29.614284169924034 H 0.0 **** 0.06
4548 H 103.10540710834675 93.07486390130455 27.939947738639674 H 0.0 **** 0.06
4549 H 103.75550641205211 94.59486922450307 28.599553071997377 H 0.0 **** 0.06
4550 H 102.19499372055844 93.96787277580447 29.182064930807186 H 0.0 **** 0.06
4551 C 78.13639735562053 35.11399642641574 176.12589214583244 C 0.0 **** -0.24
4552 H 78.22586187666505 34.24340827971395 176.77518718498354 H 0.0 **** 0.06
4553 H 77.4329474348198 35.822849850590345 176.56454890183323 H 0.0 **** 0.06
4554 H 77.77316389070913 34.80107539676969 175.1466094605309 H 0.0 **** 0.06
4555 H 79.11153745735459 35.58941382225467 176.01753728377753 H 0.0 **** 0.06
4556 C 136.96257742371364 17.825055114297726 156.6829712562864 C 0.0 **** -0.24
4557 H 136.01837115665427 17.663454369889166 156.16216858376382 H 0.0 **** 0.06
4558 H 137.5390038874869 16.899997226901746 156.68331323043716 H 0.0 **** 0.06
4559 H 136.7625043236444 18.13089781406012 157.70945294691242 H 0.0 **** 0.06
4560 H 137.52766036294292 18.606246710223928 156.1744630008736 H 0.0 **** 0.06
4561 C 198.4010006975489 192.44583198451394 180.06850267557516 C 0.0 **** -0.24
4562 H 198.32983734157705 191.36297855158062 180.17372109103815 H 0.0 **** 0.06
4563 H 197.44574611510754 192.8994511821598 180.3335554966033 H 0.0 **** 0.06
4564 H 198.6480867127885 192.69479193883691 179.03641201695592 H 0.0 **** 0.06
4565 H 199.17941780503085 192.8242895775828 180.73125100320115 H 0.0 **** 0.06
4566 C 50.336423352906536 34.77528103178628 156.05936485996193 C 0.0 **** -0.24
4567 H 50.623921901222985 35.617567347728084 155.43078709247598 H 0.0 **** 0.06
4568 H 51.067817921791544 33.973904169188984 155.9475085923972 H 0.0 **** 0.06
4569 H 49.35313321396805 34.41530494849201 155.75764745755703 H 0.0 **** 0.06
4570 H 50.3028950355812 35.09457134950213 157.10071264708284 H 0.0 **** 0.06
4571 C 29.57782797559736 164.75898539885407 103.3655337891594 C 0.0 **** -0.24
4572 H 28.741336337433836 164.49750483782577 104.01329016980438 H 0.0 **** 0.06
4573 H 29.75734581679569 165.83330502562808 103.42159088019045 H 0.0 **** 0.06
4574 H 29.341620663615373 164.48322674538096 102.33816679717461 H 0.0 **** 0.06
4575 H 30.4699610771695 164.22305560050282 103.69097884266824 H 0.0 **** 0.06
4576 C 194.84216891982723 24.572672105530614 54.031479644921674 C 0.0 **** -0.24
4577 H 195.62440082842647 25.32178490782674 54.151266613675915 H 0.0 **** 0.06
4578 H 194.8308971110976 24.219783030947553 53.00015140721803 H 0.0 **** 0.06
4579 H 193.8762176273726 25.015197203184755 54.27456259010178 H 0.0 **** 0.06
4580 H 195.03634008775447 23.73496120444557 54.70043828456926 H 0.0 **** 0.06
4581 C 180.93286542916377 26.01405817297274 65.5020958489321 C 0.0 **** -0.24
4582 H 181.83283953220345 26.62128027855917 65.41096085910112 H 0.0 **** 0.06
4583 H 180.05359085196847 26.652022275151438 65.40299113476127 H 0.0 **** 0.06
4584 H 180.9200503395705 25.52722515788858 66.47741327315481 H 0.0 **** 0.06
4585 H 180.92379757203275 25.25731264720463 64.71714063824015 H 0.0 **** 0.06
4586 C 98.09148333209413 29.67870211545035 195.34275349390063 C 0.0 **** -0.24
4587 H 98.41081674843122 28.70241719209247 194.97918976867948 H 0.0 **** 0.06
4588 H 97.02379437217917 29.65202220334504 195.5622692469858 H 0.0 **** 0.06
4589 H 98.28726298771062 30.432761400215483 194.57959385741322 H 0.0 **** 0.06
4590 H 98.64247906016942 29.92711322427739 196.2488391807633 H 0.0 **** 0.06
4591 C 161.84169046633775 77.20007365196426 122.82977318393509 C 0.0 **** -0.24
4592 H 161.14015478022083 76.75347491028106 123.5345596283409 H 0.0 **** 0.06
4593 H 161.7614749683685 76.69382346944002 121.86842627299251 H 0.0 **** 0.06
4594 H 162.85697459323637 77.09492573284265 123.21350585242061 H 0.0 **** 0.06
4595 H 161.60776009332142 78.25759165921811 122.70553576644119 H 0.0 **** 0.06
4596 C 139.3999752403912 57.56149044828328 32.719964941903214 C 0.0 **** -0.24
4597 H 139.69645174755863 56.96478201347608 31.85750137723079 H 0.0 **** 0.06
4598 H 140.1307987643354 58.35351946940597 32.88246011947234 H 0.0 **** 0.06
4599 H 139.3519141352458 56.92452384835536 33.60311518997656 H 0.0 **** 0.06
4600 H 138.42039357340025 58.002313289744734 32.536330380351814 H 0.0 **** 0.06
4601 C 126.51081846734749 122.375894869913 126.66909876523133 C 0.0 **** -0.24
4602 H 126.05914012559896 121.50808625831957 127.1498841383223 H 0.0 **** 0.06
4603 H 127.37113476670817 122.70626923712607 127.25167351362725 H 0.0 **** 0.06
4604 H 125.77904626665409 123.1818271373005 126.613158529516 H 0.0 **** 0.06
4605 H 126.83346084374358 122.10787165159982 125.6640310608658 H 0.0 **** 0.06
4606 C 67.24940966455685 60.003840015076946 0.6147782686345522 C 0.0 **** -0.24
4607 H 67.08357723456334 58.93738207241768 0.7699064776484761 H 0.0 **** 0.06
4608 H 66.85519334178548 60.560856629563204 1.4642843885598609 H 0.0 **** 0.06
4609 H 66.74170419863776 60.32066279782782 -0.29607087350800043 H 0.0 **** 0.06
4610 H 68.31888823543517 60.19392913791512 0.5193716965345345 H 0.0 **** 0.06
4611 C 57.152751044063734 156.06386862773732 117.78458579606365 C 0.0 **** -0.24
4612 H 57.150745753966035 155.2945338815294 117.01255166118807 H 0.0 **** 0.06
4613 H 58.17046864068243 156.21086073474788 118.14785418535979 H 0.0 **** 0.06
4614 H 56.51335794811226 155.75025888160553 118.61013294268582 H 0.0 **** 0.06
4615 H 56.77671864041865 156.99739912757116 117.36803317905799 H 0.0 **** 0.06
4616 C 65.91326129015135 195.75867133304124 0.18581434880430692 C 0.0 **** -0.24
4617 H 65.07092190949709 196.25167153377774 -0.2992236359800202 H 0.0 **** 0.06
4618 H 65.80814155682071 194.6781103360208 0.08300637181442738 H 0.0 **** 0.06
4619 H 65.9292268715822 196.02424598190294 1.2419160701911665 H 0.0 **** 0.06
4620 H 66.84247747921125 196.08017620901518 -0.28433410173725804 H 0.0 **** 0.06
4621 C 27.026758235121946 120.0078542455982 47.36020474683852 C 0.0 **** -0.24
4622 H 25.956264183816586 120.08220941646721 47.550867987456456 H 0.0 **** 0.06
4623 H 27.190703983720255 119.66717511713313 46.33698519828319 H 0.0 **** 0.06
4624 H 27.471580802100902 119.2968347493968 48.05667000112058 H 0.0 **** 0.06
4625 H 27.48800717133662 120.986446129917 47.49583306224051 H 0.0 **** 0.06
4626 C 11.255106934987381 149.94013450335115 108.6941024559718 C 0.0 **** -0.24
4627 H 12.03776638715042 149.9005104391484 109.45176253765558 H 0.0 **** 0.06
4628 H 11.32232757261525 150.8848229263577 108.15221694635929 H 0.0 **** 0.06
4629 H 10.279371922509206 149.86533713024997 109.17395995224066 H 0.0 **** 0.06
4630 H 11.382314570260306 149.11105583854896 107.99714442753344 H 0.0 **** 0.06
4631 C 5.094034164190326 109.95509059256051 41.46735253163362 C 0.0 **** -0.24
4632 H 4.8076513230315 109.13867041178867 40.80320595710296 H 0.0 **** 0.06
4633 H 6.161648584632019 110.14902302818746 41.36330280833681 H 0.0 **** 0.06
4634 H 4.8727462570096165 109.6793368981871 42.498050464190726 H 0.0 **** 0.06
4635 H 4.534154654812035 110.85130355174044 41.20264152024714 H 0.0 **** 0.06
4636 C 73.78215221582833 131.66510879911732 44.09485408189164 C 0.0 **** -0.24
4637 H 72.86510881388233 132.2038972293475 44.33331814472115 H 0.0 **** 0.06
4638 H 74.02071699313025 130.97771331702768 44.90590892703881 H 0.0 **** 0.06
4639 H 74.59857677563056 132.37550937850386 43.968040754731646 H 0.0 **** 0.06
4640 H 73.64303685220504 131.10402151702021 43.17108373851522 H 0.0 **** 0.06
4641 C 113.33782220835963 48.51642857484467 76.0681722636275 C 0.0 **** -0.24
4642 H 112.50904450890047 48.81546614793547 75.42519810249433 H 0.0 **** 0.06
4643 H 114.2326340956264 49.072159769140285 75.78792914140831 H 0.0 **** 0.06
4644 H 113.52079928484207 47.44889710315229 75.95020360090905 H 0.0 **** 0.06
4645 H 113.08623193719868 48.72986378895044 77.1067320420035 H 0.0 **** 0.06
4646 C 184.67283224782398 5.244358531564586 155.2908790194058 C 0.0 **** -0.24
4647 H 184.0043361692068 4.863749897712438 156.0632291645949 H 0.0 **** 0.06
4648 H 184.0969832362639 5.8070424136915335 154.5563986331353 H 0.0 **** 0.06
4649 H 185.17207869678367 4.408392876610918 154.79933642328 H 0.0 **** 0.06
4650 H 185.41914802731966 5.895787137236226 155.74575945951284 H 0.0 **** 0.06
4651 C 167.68143569273943 181.01961342030015 66.96865145798711 C 0.0 **** -0.24
4652 H 166.9823907881195 181.7953371274695 66.65500412646793 H 0.0 **** 0.06
4653 H 168.47844728825433 181.46827678743284 67.56270230638859 H 0.0 **** 0.06
4654 H 168.11006979570936 180.54025247170227 66.08800760857758 H 0.0 **** 0.06
4655 H 167.15583276383987 180.2772392572091 67.56748766232366 H 0.0 **** 0.06
4656 C 64.76816016847265 69.82528219384213 44.823931932428195 C 0.0 **** -0.24
4657 H 64.29610940236144 70.57866435878032 44.19361926268566 H 0.0 **** 0.06
4658 H 63.999593333698854 69.20579607630344 45.28733421632526 H 0.0 **** 0.06
4659 H 65.35598149861757 70.31724113456369 45.599977165378974 H 0.0 **** 0.06
4660 H 65.42180509515275 69.19948268431716 44.21592701826522 H 0.0 **** 0.06
4661 C 82.51918634925752 108.74472202381224 149.50098580900666 C 0.0 **** -0.24
4662 H 81.81869152556519 108.59146609422862 150.3213633348158 H 0.0 **** 0.06
4663 H 82.38450110777708 107.95868351420984 148.75690042200364 H 0.0 **** 0.06
4664 H 83.53882619086991 108.71247497474064 149.88340100036118 H 0.0 **** 0.06
4665 H 82.33294735929934 109.7150747348004 149.0416293902983 H 0.0 **** 0.06
4666 C 81.48044985784941 52.003644032200455 11.345715848547513 C 0.0 **** -0.24
4667 H 80.80245056089598 51.6811588227235 10.555726027083999 H 0.0 **** 0.06
4668 H 82.44523168871245 52.2683099261899 10.911427125401048 H 0.0 **** 0.06
4669 H 81.61502961191587 51.1932771282186 12.06227181736159 H 0.0 **** 0.06
4670 H 81.060377648649 52.87221159497514 11.853002170668127 H 0.0 **** 0.06
4671 C 156.01289185108854 29.635518731609352 105.09946891479655 C 0.0 **** -0.24
4672 H 156.19305460104295 29.24401655184829 106.09983988294982 H 0.0 **** 0.06
4673 H 155.59698346951302 28.84828653447576 104.47061172126666 H 0.0 **** 0.06
4674 H 156.95225568782254 29.985619589099542 104.67179889096934 H 0.0 **** 0.06
4675 H 155.3081415518908 30.466075000320814 105.15577181381684 H 0.0 **** 0.06
4676 C 71.66990404772643 155.12359039524648 177.37103465305375 C 0.0 **** -0.24
4677 H 72.36051556004404 154.88044028870183 178.17759860889106 H 0.0 **** 0.06
4678 H 70.65559580152876 155.17992745248222 177.7658201575682 H 0.0 **** 0.06
4679 H 71.71914446824827 154.35051945132682 176.6044967420038 H 0.0 **** 0.06
4680 H 71.94444693181221 156.08446158646 176.9348025367884 H 0.0 **** 0.06
4681 C 54.02570073824714 101.01931258814818 48.19869242115723 C 0.0 **** -0.24
4682 H 54.30971150730181 101.38665758384269 49.184860368400905 H 0.0 **** 0.06
4683 H 53.079245502866286 100.48179303408017 48.269614449033185 H 0.0 **** 0.06
4684 H 54.79861735539335 100.34806263447359 47.824935714678816 H 0.0 **** 0.06
4685 H 53.91520866537648 101.86191998408458 47.5161340280236 H 0.0 **** 0.06
4686 C 165.05464553931589 89.48841176368319 57.47956402492102 C 0.0 **** -0.24
4687 H 165.6983162158666 88.85987331465674 56.864546829936955 H 0.0 **** 0.06
4688 H 165.32229801058074 89.36457557558236 58.52943614061347 H 0.0 **** 0.06
4689 H 164.01414261792138 89.19618122105055 57.33254124931943 H 0.0 **** 0.06
4690 H 165.18223707047122 90.53144413615439 57.19179409975763 H 0.0 **** 0.06
4691 C 157.58212116095953 26.450994397674094 100.15819593478525 C 0.0 **** -0.24
4692 H 158.6469597220101 26.227109668641702 100.22440889088043 H 0.0 **** 0.06
4693 H 157.41324438124482 27.179102973275633 99.36467074743257 H 0.0 **** 0.06
4694 H 157.23709978955895 26.85993804168993 101.1072207006018 H 0.0 **** 0.06
4695 H 157.032007409059 25.53622917241023 99.93515524794825 H 0.0 **** 0.06
4696 C 5.441725106157378 171.5720671746214 125.82646594046412 C 0.0 **** -0.24
4697 H 4.57263763660103 171.87828275172672 126.4091920208732 H 0.0 **** 0.06
4698 H 6.109315101197467 172.4242812107832 125.69622180486206 H 0.0 **** 0.06
4699 H 5.116080487855072 171.21178443094556 124.85130104094708 H 0.0 **** 0.06
4700 H 5.9677914488584065 170.77464174481827 126.35220217604913 H 0.0 **** 0.06
4701 C 110.27366711265111 163.9213744566418 84.2992385550026 C 0.0 **** -0.24
4702 H 109.46637526343719 164.03346053886625 83.57546009201303 H 0.0 **** 0.06
4703 H 109.85116393563169 163.7368524432472 85.2872073733032 H 0.0 **** 0.06
4704 H 110.86985865852299 164.83401427608456 84.32364964460771 H 0.0 **** 0.06
4705 H 110.90559044972949 163.08132186580485 84.0110299109067 H 0.0 **** 0.06
4706 C 198.26494770067188 150.9832662259251 8.812670726310984 C 0.0 **** -0.24
4707 H 198.1534845711011 150.12330075509254 9.472869966027446 H 0.0 **** 0.06
4708 H 198.9317425640221 151.7114567806198 9.275240531543176 H 0.0 **** 0.06
4709 H 197.28936620647985 151.43898731755993 8.642580388581251 H 0.0 **** 0.06
4710 H 198.6850448114418 150.65825324339218 7.860907805130239 H 0.0 **** 0.06
4711 C 26.348861108305215 91.97081768833661 141.53580037091865 C 0.0 **** -0.24
4712 H 26.249765934816025 91.09141631460847 140.89991512957883 H 0.0 **** 0.06
4713 H 27.119924534991952 91.79326821803585 142.28503801359483 H 0.0 **** 0.06
4714 H 25.398469554973985 92.16876270742097 142.03199625831044 H 0.0 **** 0.06
4715 H 26.62538994975216 92.83113344031341 140.92541826737084 H 0.0 **** 0.06
4716 C 146.87666907442656 77.23465177315754 149.97535123396943 C 0.0 **** -0.24
4717 H 146.7971937961737 78.30595181441078 150.15847843524102 H 0.0 **** 0.06
4718 H 147.72901807877918 77.03932369160616 149.32390836024976 H 0.0 **** 0.06
4719 H 145.96342418743995 76.87985550952781 149.49646179531226 H 0.0 **** 0.06
4720 H 147.01627979101573 76.71361491976597 150.92192194078933 H 0.0 **** 0.06
4721 C 157.57267309744867 189.4068015993839 184.5166471987656 C 0.0 **** -0.24
4722 H 158.4547475270543 189.822061060242 185.0032147116344 H 0.0 **** 0.06
4723 H 157.74555624912904 188.3544892066911 184.28754293918098 H 0.0 **** 0.06
4724 H 157.3756795472572 189.95242993672397 183.5945615671856 H 0.0 **** 0.06
4725 H 156.71410080290056 189.4966104294632 185.1830072337091 H 0.0 **** 0.06
4726 C 99.22497966463251 156.407675387853 163.30163748866212 C 0.0 **** -0.24
4727 H 99.73875219530518 155.73604180049642 162.6146624022689 H 0.0 **** 0.06
4728 H 99.8565939333267 156.5896969218241 164.1714140515845 H 0.0 **** 0.06
4729 H 98.28796580807568 155.95217664475825 163.62275369898538 H 0.0 **** 0.06
4730 H 99.01672563182382 157.35223533095143 162.79901690018562 H 0.0 **** 0.06
4731 C 146.3043712798466 155.43756265018692 36.814897926876895 C 0.0 **** -0.24
4732 H 145.9012798340988 154.44943417468386 37.03512977980975 H 0.0 **** 0.06
4733 H 145.52360026253564 156.1863255335856 36.94848102881103 H 0.0 **** 0.06
4734 H 146.66118644183746 155.46265979148228 35.78529569572335 H 0.0 **** 0.06
4735 H 147.1322470908073 155.65084558036983 37.49184381668981 H 0.0 **** 0.06
4736 C 41.60029237438965 71.89197227917813 12.435875926000335 C 0.0 **** -0.24
4737 H 40.91042301206659 71.82723782968532 11.594343157582415 H 0.0 **** 0.06
4738 H 41.52082434809131 72.87801223965309 12.89571584752133 H 0.0 **** 0.06
4739 H 42.619606965237836 71.73660372480936 12.082472391645979 H 0.0 **** 0.06
4740 H 41.349216653858605 71.12680774612747 13.1705288406705 H 0.0 **** 0.06
4741 C 46.14426120504919 112.08580121633196 109.67100562253 C 0.0 **** -0.24
4742 H 46.925428367011705 112.62799559590582 109.13919383365592 H 0.0 **** 0.06
4743 H 46.45782339466302 111.0529870843207 109.82364051069251 H 0.0 **** 0.06
4744 H 45.225735984810484 112.10374298716553 109.08511554994331 H 0.0 **** 0.06
4745 H 45.96792861652972 112.5576535684649 110.63814670836464 H 0.0 **** 0.06
4746 C 31.625765968324686 181.79049172648695 93.96446846256117 C 0.0 **** -0.24
4747 H 31.476380562137123 180.71927704435825 93.8273779868299 H 0.0 **** 0.06
4748 H 32.301643188638266 182.16522164942486 93.19564913731926 H 0.0 **** 0.06
4749 H 32.05713259827526 181.97394715601553 94.94888790247353 H 0.0 **** 0.06
4750 H 30.667060679095172 182.30337866235018 93.88802345079796 H 0.0 **** 0.06
4751 C 84.93650506308555 184.75249841663546 30.771255181544447 C 0.0 **** -0.24
4752 H 84.83671145544778 185.8235623182464 30.59829560775249 H 0.0 **** 0.06
4753 H 85.48608075190037 184.30102962229716 29.945666204910452 H 0.0 **** 0.06
4754 H 83.94574034937665 184.3009361079921 30.83822149402087 H 0.0 **** 0.06
4755 H 85.47565178174935 184.5841123790873 31.70354786231553 H 0.0 **** 0.06
4756 C 6.086555065070598 24.174504957300258 100.25950628398084 C 0.0 **** -0.24
4757 H 7.027323958946624 24.412945187617822 100.75748908066214 H 0.0 **** 0.06
4758 H 6.2448488735317085 23.359314911095993 99.55432055336917 H 0.0 **** 0.06
4759 H 5.726277223651209 25.054435088102764 99.72529887720071 H 0.0 **** 0.06
4760 H 5.348387115477294 23.874208403464422 101.00299114233866 H 0.0 **** 0.06
4761 C 190.8807261677806 156.00638802086527 98.53383365409803 C 0.0 **** -0.24
4762 H 190.09126315141256 155.25575058686726 98.50627903403824 H 0.0 **** 0.06
4763 H 191.05584023571777 156.31202555854972 99.5654394146269 H 0.0 **** 0.06
4764 H 190.57888311707478 156.87263187449975 97.94494568097608 H 0.0 **** 0.06
4765 H 191.79573709728504 155.5859095289773 98.11880898017358 H 0.0 **** 0.06
4766 C 163.32034730174453 156.4446672901794 167.2698336226826 C 0.0 **** -0.24
4767 H 163.37965736285025 155.942533902905 166.3035215153682 H 0.0 **** 0.06
4768 H 163.4808399310282 157.51368187768418 167.13427336091058 H 0.0 **** 0.06
4769 H 164.08481125974447 156.04247324579282 167.93440979134823 H 0.0 **** 0.06
4770 H 162.33570735890888 156.27736812580093 167.70611088463403 H 0.0 **** 0.06
4771 C 54.648831096975925 183.1659525403206 171.13220816664898 C 0.0 **** -0.24
4772 H 54.573762070060354 183.13500008933985 172.21879974190728 H 0.0 **** 0.06
4773 H 53.76805046161206 182.69525783302873 170.69480828210453 H 0.0 **** 0.06
4774 H 55.54307676438901 182.63093096382474 170.81467981822823 H 0.0 **** 0.06
4775 H 54.70885659680886 184.2027759481221 170.80241152180932 H 0.0 **** 0.06
4776 C 73.33657836772431 56.37568775335822 177.557228181794 C 0.0 **** -0.24
4777 H 72.3044262156327 56.17586140095598 177.26922288912394 H 0.0 **** 0.06
4778 H 73.97756763176073 56.31906793794613 176.67637025743923 H 0.0 **** 0.06
4779 H 73.65995968951802 55.63559893117079 178.28937826455973 H 0.0 **** 0.06
4780 H 73.4059711400912 57.37271948436603 177.99354466997923 H 0.0 **** 0.06
4781 C 129.21886345035213 97.57269706718137 86.18601893161079 C 0.0 **** -0.24
4782 H 128.80814499830694 97.83627369508503 85.2105572814265 H 0.0 **** 0.06
4783 H 128.5884285485571 97.99242054153225 86.96968385638877 H 0.0 **** 0.06
4784 H 130.2276067797852 97.97494441045762 86.27514600580636 H 0.0 **** 0.06
4785 H 129.24893106683143 96.48746499932875 86.285165224889 H 0.0 **** 0.06
4786 C 56.239123815165954 71.96957458048274 195.97513876072958 C 0.0 **** -0.24
4787 H 56.10426584470795 71.87135204655986 197.05282859030618 H 0.0 **** 0.06
4788 H 57.05928467093139 72.65970655000207 195.77352340934343 H 0.0 **** 0.06
4789 H 55.32225497109482 72.35466929148075 195.52818766514685 H 0.0 **** 0.06
4790 H 56.47043352098956 70.99386007703684 195.54752244197138 H 0.0 **** 0.06
4791 C 139.4797185288673 6.015582273280195 100.06843447215869 C 0.0 **** -0.24
4792 H 140.30614805791205 6.545645002133405 99.59388369299754 H 0.0 **** 0.06
4793 H 138.63445252911967 5.971016722843011 99.38048751276202 H 0.0 **** 0.06
4794 H 139.18256924516982 6.5429655539105696 100.97502416209065 H 0.0 **** 0.06
4795 H 139.79512188161925 5.003798460746538 100.32277463647347 H 0.0 **** 0.06
4796 C 30.72632638897234 113.51093916458137 124.71377778737136 C 0.0 **** -0.24
4797 H 31.734124732031503 113.78429893282234 124.40170149527364 H 0.0 **** 0.06
4798 H 30.6192632236466 113.68004274316215 125.7858156444832 H 0.0 **** 0.06
4799 H 30.55043288796041 112.45906080070193 124.49250865646871 H 0.0 **** 0.06
4800 H 30.001846262017636 114.12224474106165 124.17622341078021 H 0.0 **** 0.06
4801 C 83.16144116963517 29.67983323511298 59.030705767522136 C 0.0 **** -0.24
4802 H 83.47726620339142 30.702536523720298 58.82683523257572 H 0.0 **** 0.06
4803 H 83.97990334704446 28.99521001680442 58.80667137260946 H 0.0 **** 0.06
4804 H 82.30131009631634 29.43384123502392 58.4077016239367 H 0.0 **** 0.06
4805 H 82.88665516474236 29.587094403666597 60.08119081392306 H 0.0 **** 0.06
4806 C 75.73479665796619 115.96646549685246 108.34709417228763 C 0.0 **** -0.24
4807 H 76.12633741317651 116.47527186554566 109.22881047085048 H 0.0 **** 0.06
4808 H 75.92674762020069 116.57427367239256 107.46226551324722 H 0.0 **** 0.06
4809 H 74.66096078099835 115.81881452288073 108.46133242682598 H 0.0 **** 0.06
4810 H 76.22536333632824 114.99976316576846 108.23876784315135 H 0.0 **** 0.06
4811 C 189.75400565729035 165.34542894232402 165.00783208071772 C 0.0 **** -0.24
4812 H 189.45598060071308 166.3523003145054 165.29831747422463 H 0.0 **** 0.06
4813 H 189.21474858698457 164.6170073793906 165.61356347790115 H 0.0 **** 0.06
4814 H 190.82576412607506 165.2245438533174 165.16325488396996 H 0.0 **** 0.06
4815 H 189.5197943241863 165.1864032884402 163.95530057417855 H 0.0 **** 0.06
4816 C 0.9812325581678607 15.561194526969047 44.98184182464681 C 0.0 **** -0.24
4817 H 1.1841558368962524 15.307085520937136 46.02265182579737 H 0.0 **** 0.06
4818 H 0.8856778119615143 16.642962358664732 44.88458265306514 H 0.0 **** 0.06
4819 H 0.052733807689804735 15.084673807697868 44.66616196679104 H 0.0 **** 0.06
4820 H 1.801373903228125 15.210520731159988 44.35592191781261 H 0.0 **** 0.06
4821 C 194.13911530394853 110.1709510625933 72.53779037426474 C 0.0 **** -0.24
4822 H 194.52423622961658 109.53328565354491 73.33397150754536 H 0.0 **** 0.06
4823 H 193.0514642849909 110.0968251578858 72.50606777266101 H 0.0 **** 0.06
4824 H 194.55310005583794 109.84817354887781 71.5825029907765 H 0.0 **** 0.06
4825 H 194.42839523162706 111.20508081925891 72.728101904664 H 0.0 **** 0.06
4826 C 64.89220055817773 12.99092826848397 22.90979810295333 C 0.0 **** -0.24
4827 H 65.71671073007924 13.472089899668035 23.43646323049964 H 0.0 **** 0.06
4828 H 64.2234341012406 13.75424362770437 22.509688353603664 H 0.0 **** 0.06
4829 H 64.34300351668617 12.351644379990141 23.60063338724899 H 0.0 **** 0.06
4830 H 65.2861164035657 12.388023550058286 22.09166615304727 H 0.0 **** 0.06
4831 C 162.63340632351233 157.37567654333776 18.604972440549147 C 0.0 **** -0.24
4832 H 161.6156632542436 157.464580999431 18.224491517319507 H 0.0 **** 0.06
4833 H 162.86882331245442 156.32402418797255 18.768843884831483 H 0.0 **** 0.06
4834 H 162.71772711444046 157.91877226557875 19.546318670719415 H 0.0 **** 0.06
4835 H 163.33005259704612 157.79547880175073 17.879172384897515 H 0.0 **** 0.06
4836 C 56.33133500057767 174.46172008562291 12.404172881815903 C 0.0 **** -0.24
4837 H 56.27606598583159 173.39080574665815 12.597683813989441 H 0.0 **** 0.06
4838 H 57.24093262064561 174.6818688481114 11.844103774720239 H 0.0 **** 0.06
4839 H 56.347482709576084 175.00161962301505 13.351044799253593 H 0.0 **** 0.06
4840 H 55.46267333343417 174.77175062364282 11.823763849935062 H 0.0 **** 0.06
4841 C 116.30203898919524 63.64671380905685 10.01871844263161 C 0.0 **** -0.24
4842 H 115.6703966291029 64.44553509178132 9.62932894262849 H 0.0 **** 0.06
4843 H 116.00604213948222 62.69842477097484 9.568557940149901 H 0.0 **** 0.06
4844 H 116.18721719891573 63.58838529311697 11.1004676715159 H 0.0 **** 0.06
4845 H 117.3438818116075 63.85648366667908 9.773565727718506 H 0.0 **** 0.06
4846 C 186.10177356586155 164.3081878075983 22.676847042850397 C 0.0 **** -0.24
4847 H 186.52574018809315 163.96210581743577 23.619761276797675 H 0.0 **** 0.06
4848 H 186.60122630367658 165.22641657229443 22.368687069815223 H 0.0 **** 0.06
4849 H 185.03629726704582 164.49975187761368 22.807270063559812 H 0.0 **** 0.06
4850 H 186.242817787892 163.54304010511098 21.91305177141571 H 0.0 **** 0.06
4851 C 147.99595913662566 102.1336226442393 86.72111108795795 C 0.0 **** -0.24
4852 H 148.90344271764215 102.70547099554378 86.52888028296249 H 0.0 **** 0.06
4853 H 147.8953879764037 101.34910624195484 85.97004240080571 H 0.0 **** 0.06
4854 H 147.13171634434048 102.79657602503406 86.67328947838973 H 0.0 **** 0.06
4855 H 148.0532895081162 101.6833373144243 87.71223218967361 H 0.0 **** 0.06
4856 C 83.78093754222715 151.96444404849422 158.7512115569482 C 0.0 **** -0.24
4857 H 84.5731711530699 151.84721301188387 158.01060807972863 H 0.0 **** 0.06
4858 H 83.57543764522353 153.02447936541972 158.89781846786627 H 0.0 **** 0.06
4859 H 84.09832834963578 151.52059672573154 159.6947757098652 H 0.0 **** 0.06
4860 H 82.87915774448584 151.46382072649084 158.3992511051403 H 0.0 **** 0.06
4861 C 131.83589508988652 2.5735583406323883 4.270926255595462 C 0.0 **** -0.24
4862 H 131.412769852781 3.347432167102724 3.6300393477552717 H 0.0 **** 0.06
4863 H 131.11810497061435 2.315923431785812 5.050344180794099 H 0.0 **** 0.06
4864 H 132.75318945792418 2.9415452065191374 4.728043681934409 H 0.0 **** 0.06
4865 H 132.0560621626343 1.6889178387614834 3.6728490540130068 H 0.0 **** 0.06
4866 C 83.42931230851616 72.42497155157564 98.96679008694286 C 0.0 **** -0.24
4867 H 83.5882973176858 73.36174122012409 98.43184611209318 H 0.0 **** 0.06
4868 H 82.99295652904073 71.69002586871271 98.28934474659661 H 0.0 **** 0.06
4869 H 82.75385229792948 72.59462841129952 99.80422722971048 H 0.0 **** 0.06
4870 H 84.38446290702777 72.05343100785446 99.33880709583923 H 0.0 **** 0.06
4871 C 129.96788746642818 44.526178758798 187.13411720762264 C 0.0 **** -0.24
4872 H 129.74422130996842 45.32448851684873 187.84158781288815 H 0.0 **** 0.06
4873 H 130.5184633080985 43.7342684480077 187.64272118179218 H 0.0 **** 0.06
4874 H 130.57252054537398 44.921924557084324 186.31813511002588 H 0.0 **** 0.06
4875 H 129.03723211397778 44.12327246697082 186.7348205600994 H 0.0 **** 0.06
4876 C 2.962864582810603 127.8583147014065 89.88582686853948 C 0.0 **** -0.24
4877 H 2.194370803160993 127.93499041633905 90.65444888820323 H 0.0 **** 0.06
4878 H 3.8914258735529472 127.50348422783594 90.33423959196156 H 0.0 **** 0.06
4879 H 3.1274213232644215 128.83815086534017 89.43705313584556 H 0.0 **** 0.06
4880 H 2.6382403312640577 127.15663329611095 89.11756585814749 H 0.0 **** 0.06
4881 C 11.911775262810401 98.95429012204883 121.17324685967296 C 0.0 **** -0.24
4882 H 11.743614124719592 99.9506892108669 120.76518514988342 H 0.0 **** 0.06
4883 H 11.084861922813666 98.68717466031359 121.83234728590668 H 0.0 **** 0.06
4884 H 12.844395255571271 98.94621746984299 121.7386038206898 H 0.0 **** 0.06
4885 H 11.97425915087085 98.23419135876438 120.3577242023068 H 0.0 **** 0.06
4886 C 124.73008083686321 32.250424998774804 82.02812677392944 C 0.0 **** -0.24
4887 H 123.67265153478658 32.26277255699914 81.76141059460451 H 0.0 **** 0.06
4888 H 124.83010104487792 32.18777167962104 83.1116479774978 H 0.0 **** 0.06
4889 H 125.20445049992884 33.16364767661143 81.6703315498388 H 0.0 **** 0.06
4890 H 125.21031704121512 31.38649734944657 81.56805841035373 H 0.0 **** 0.06
4891 C 143.29920187698121 24.89559697814593 28.986187364699447 C 0.0 **** -0.24
4892 H 144.08375882792626 25.134690254561406 29.70463812484698 H 0.0 **** 0.06
4893 H 142.3243772473404 25.026945074719038 29.456672559336425 H 0.0 **** 0.06
4894 H 143.40977329803383 23.861632280930166 28.658764615018526 H 0.0 **** 0.06
4895 H 143.3806756020001 25.559498384273525 28.125977145354852 H 0.0 **** 0.06
4896 C 124.04531084298429 124.52962884505311 79.16854554833475 C 0.0 **** -0.24
4897 H 124.83934251066256 124.02178304329883 79.71508467136812 H 0.0 **** 0.06
4898 H 123.61815440697009 125.31473486127803 79.79296737606106 H 0.0 **** 0.06
4899 H 123.2679637117088 123.81106722983446 78.90599011431772 H 0.0 **** 0.06
4900 H 124.45359185151781 124.97075833377835 78.25972705383913 H 0.0 **** 0.06
4901 C 47.269556813487554 13.978757632742884 51.06580025244284 C 0.0 **** -0.24
4902 H 47.333186995832136 13.156801723466288 51.779883859092934 H 0.0 **** 0.06
4903 H 48.27273269714857 14.337814130677145 50.8352373165086 H 0.0 **** 0.06
4904 H 46.683665482620626 14.789953304270426 51.49742462910956 H 0.0 **** 0.06
4905 H 46.78872976240439 13.6288935820522 50.15224720145534 H 0.0 **** 0.06
4906 C 18.846707619568207 30.15397793688129 134.0348372850569 C 0.0 **** -0.24
4907 H 19.775179373916316 29.587976303184746 133.95846295969253 H 0.0 **** 0.06
4908 H 18.934994112098494 31.07468715985499 133.45683059262151 H 0.0 **** 0.06
4909 H 18.65477303959736 30.3977712955151 135.0798911613341 H 0.0 **** 0.06
4910 H 18.023194377440802 29.557295296507334 133.64317615824731 H 0.0 **** 0.06
4911 C 105.00325684451752 24.367230982864086 172.0640736272476 C 0.0 **** -0.24
4912 H 105.08379503959867 24.53575410881625 170.98993571733286 H 0.0 **** 0.06
4913 H 105.97031418643508 24.548139563167595 172.5332600129383 H 0.0 **** 0.06
4914 H 104.69583052835674 23.33793511545484 172.2483282219268 H 0.0 **** 0.06
4915 H 104.26266369579594 25.048105065038826 172.48387591277714 H 0.0 **** 0.06
4916 C 94.05269171905223 89.31121952416504 126.4206302803367 C 0.0 **** -0.24
4917 H 94.17007212681881 88.56172616001393 127.20368342797224 H 0.0 **** 0.06
4918 H 93.79683781335461 90.26990660048688 126.8710662208855 H 0.0 **** 0.06
4919 H 93.25705487090329 89.00405221422815 125.74073104851976 H 0.0 **** 0.06
4920 H 94.9863094315578 89.40698766115369 125.86609523371243 H 0.0 **** 0.06
4921 C 54.88975541148855 95.98074220154825 1.304199287123481 C 0.0 **** -0.24
4922 H 54.442813134375 95.05560209828167 1.6683930218381136 H 0.0 **** 0.06
4923 H 54.49292921066592 96.82372060720698 1.870738850411641 H 0.0 **** 0.06
4924 H 54.65214207602327 96.10766466204262 0.24813240068039022 H 0.0 **** 0.06
4925 H 55.97127295998615 95.93511074384682 1.4300056208864476 H 0.0 **** 0.06
4926 C 7.96150505867886 86.68486491336017 140.31767329346954 C 0.0 **** -0.24
4927 H 8.774324866059487 86.24988090660815 139.73584379641247 H 0.0 **** 0.06
4928 H 7.667936910734667 87.63751518164065 139.87463612532125 H 0.0 **** 0.06
4929 H 8.294777655160871 86.84790177454408 141.34192473294888 H 0.0 **** 0.06
4930 H 7.1100085915989695 86.00499849752555 140.31622849458293 H 0.0 **** 0.06
4931 C 108.37803141213027 157.00229108333954 50.626644210237586 C 0.0 **** -0.24
4932 H 108.20082688920019 157.37049056967697 49.61679900000594 H 0.0 **** 0.06
4933 H 109.43245461603078 157.12350812778817 50.87786692067759 H 0.0 **** 0.06
4934 H 108.11024092680668 155.94726207563974 50.681019974182306 H 0.0 **** 0.06
4935 H 107.7687683000587 157.56819272034068 51.33183389649342 H 0.0 **** 0.06
4936 C 47.18100852244778 51.70050364525571 117.2889213966634 C 0.0 **** -0.24
4937 H 46.73013114888235 50.80193111462643 117.71127753225838 H 0.0 **** 0.06
4938 H 48.09389677080944 51.43334630530484 116.75760166142095 H 0.0 **** 0.06
4939 H 47.41816785548629 52.39856048036637 118.09187394287534 H 0.0 **** 0.06
4940 H 46.48007096769601 52.1672884955251 116.5973998025448 H 0.0 **** 0.06
4941 C 95.40684915449361 133.7324043489989 41.56042381041976 C 0.0 **** -0.24
4942 H 95.9097656535335 133.01788040179505 40.908725100971395 H 0.0 **** 0.06
4943 H 95.2809239744798 134.6784199222098 41.03212739223136 H 0.0 **** 0.06
4944 H 96.00813976171852 133.89339364692486 42.45571915488814 H 0.0 **** 0.06
4945 H 94.43010857794047 133.3406734584087 41.84368769694248 H 0.0 **** 0.06
4946 C 164.99298153127432 132.93468557673927 147.8274422913283 C 0.0 **** -0.24
4947 H 164.38981826670792 132.88575702294773 146.92004723575897 H 0.0 **** 0.06
4948 H 165.52629213359205 131.99311059163995 147.95996791463682 H 0.0 **** 0.06
4949 H 164.34326205717372 133.10812545365687 148.68546029993513 H 0.0 **** 0.06
4950 H 165.71050659090247 133.75005769226354 147.742897884742 H 0.0 **** 0.06
4951 C 129.3779766691805 85.02160122237447 89.32544467720862 C 0.0 **** -0.24
4952 H 129.37194177384825 84.00457088141155 88.93312267643762 H 0.0 **** 0.06
4953 H 130.28980093743095 85.52707992793168 89.00868854651628 H 0.0 **** 0.06
4954 H 129.33995163692447 84.99066697996474 90.41459106938305 H 0.0 **** 0.06
4955 H 128.51062186770906 85.56206129631232 88.94669115069144 H 0.0 **** 0.06
4956 C 57.240859194663 128.3611754691802 15.961591939172195 C 0.0 **** -0.24
4957 H 57.75011817397866 127.4381264840354 15.684450194128601 H 0.0 **** 0.06
4958 H 57.579469355955894 128.68073359146138 16.947643392416182 H 0.0 **** 0.06
4959 H 56.165390731083804 128.18971932245523 15.98495907277362 H 0.0 **** 0.06
4960 H 57.470388969935684 129.13563414479427 15.229502100862533 H 0.0 **** 0.06
4961 C 114.78697893416665 40.90505940699762 0.6532770819779898 C 0.0 **** -0.24
4962 H 114.3313994407531 39.98631319154538 1.0234113966227767 H 0.0 **** 0.06
4963 H 114.27144070054143 41.76425325290873 1.0825939248501442 H 0.0 **** 0.06
4964 H 114.7069751052434 40.93823787079364 -0.43272348580089925 H 0.0 **** 0.06
4965 H 115.83753284227882 40.93072277073469 0.9413005922444668 H 0.0 **** 0.06
4966 C 86.60719430493646 143.8407723465848 98.3859623578127 C 0.0 **** -0.24
4967 H 86.53751720437032 144.6158380720742 99.14901209354872 H 0.0 **** 0.06
4968 H 86.71250215637903 144.30567013155348 97.40546095592242 H 0.0 **** 0.06
4969 H 85.70486324646777 143.23012131474133 98.40441896040403 H 0.0 **** 0.06
4970 H 87.47554599915435 143.2121536332832 98.58629597282652 H 0.0 **** 0.06
4971 C 142.3190386388911 164.20838807413347 83.59554363927208 C 0.0 **** -0.24
4972 H 143.14353898008548 163.51501640079385 83.75579828726927 H 0.0 **** 0.06
4973 H 142.68572726984064 165.23304090150054 83.66740283955801 H 0.0 **** 0.06
4974 H 141.55242607158561 164.04315624690665 84.35339806065201 H 0.0 **** 0.06
4975 H 141.89269795226528 164.04370171099407 82.6057478454511 H 0.0 **** 0.06
4976 C 63.18600929497336 90.450268602638 181.84646015036017 C 0.0 **** -0.24
4977 H 62.1108015140951 90.33312959213342 181.7066517484609 H 0.0 **** 0.06
4978 H 63.67640018491613 90.48886320207399 180.87430486866253 H 0.0 **** 0.06
4979 H 63.57161307329511 89.60394013306708 182.41624305881487 H 0.0 **** 0.06
4980 H 63.38256206935171 91.37383660655141 182.39069523273852 H 0.0 **** 0.06
4981 C 112.04600469432239 38.77474824935271 85.80052870440056 C 0.0 **** -0.24
4982 H 111.78224379061942 39.02869881649656 86.82690386221867 H 0.0 **** 0.06
4983 H 111.60569848739698 39.505867804491146 85.12145407387905 H 0.0 **** 0.06
4984 H 111.66486724774506 37.78163667698482 85.56316963235352 H 0.0 **** 0.06
4985 H 113.13056906169209 38.78387802365634 85.69122423471092 H 0.0 **** 0.06
4986 C 137.69651030309805 25.21835858790763 197.22627960990957 C 0.0 **** -0.24
4987 H 138.09445841639368 24.241629315995453 197.50221423895422 H 0.0 **** 0.06
4988 H 138.30681183968062 25.647221032249035 196.4306730813734 H 0.0 **** 0.06
4989 H 137.7151062107045 25.876885416631694 198.09504212316904 H 0.0 **** 0.06
4990 H 136.6707225731218 25.10634463107624 196.87697020437994 H 0.0 **** 0.06
4991 C 110.13010793301828 44.115848203845985 24.096843294643477 C 0.0 **** -0.24
4992 H 109.66035027001863 43.176953174914956 24.389478800329357 H 0.0 **** 0.06
4993 H 109.87549333747074 44.89119627717457 24.819946656471913 H 0.0 **** 0.06
4994 H 109.77274429433243 44.408255027422626 23.109001616076682 H 0.0 **** 0.06
4995 H 111.21265541390028 43.986610101794554 24.067463427101686 H 0.0 **** 0.06
4996 C 83.99535822241316 148.63972539812713 191.73580290328277 C 0.0 **** -0.24
4997 H 83.69686966731189 149.01974092016334 190.7589899946399 H 0.0 **** 0.06
4998 H 83.35662858157644 149.07335594548576 192.50570919044517 H 0.0 **** 0.06
4999 H 85.03268039859026 148.9110422130528 191.93000525945095 H 0.0 **** 0.06
5000 H 83.89525424217408 147.5547625138065 191.7485071685951 H 0.0 **** 0.06
5001 C 156.34824671176608 29.943233073020167 31.24628549311717 C 0.0 **** -0.24
5002 H 156.17585390575402 28.921410285127763 31.585202305858076 H 0.0 **** 0.06
5003 H 157.42059190094085 30.11721582209907 31.14996566019346 H 0.0 **** 0.06
5004 H 155.92970406925764 30.642174183410475 31.970851622401824 H 0.0 **** 0.06
5005 H 155.8679937900879 30.091322135469625 30.279045376256022 H 0.0 **** 0.06
5006 C 93.31194026389315 37.27822921466658 64.48745148430478 C 0.0 **** -0.24
5007 H 92.31595434996302 37.47784386829841 64.8820015048401 H 0.0 **** 0.06
5008 H 93.23542395460689 36.60097196318836 63.63634716076709 H 0.0 **** 0.06
5009 H 93.92487678854536 36.81928471379295 65.26411001599088 H 0.0 **** 0.06
5010 H 93.77099309815037 38.214104431653496 64.16782706414247 H 0.0 **** 0.06
5011 C 142.71627495457057 24.31475561959992 100.19166876969507 C 0.0 **** -0.24
5012 H 142.3560313672202 25.18331376591837 100.74468145256552 H 0.0 **** 0.06
5013 H 141.87329941035375 23.674552359890058 99.93254391584387 H 0.0 **** 0.06
5014 H 143.4206328993648 23.758265193834703 100.80885022111559 H 0.0 **** 0.06
5015 H 143.21386089228386 24.646777322787614 99.28112086862268 H 0.0 **** 0.06
5016 C 147.0975709274827 83.70638394115096 199.22849207182128 C 0.0 **** -0.24
5017 H 147.64295020986475 83.49932266669202 198.30741782832956 H 0.0 **** 0.06
5018 H 146.37378966016718 84.50222768204307 199.05077005619654 H 0.0 **** 0.06
5019 H 147.79868520005897 84.0186664236544 200.00238748332333 H 0.0 **** 0.06
5020 H 146.5762045460392 82.80582899331264 199.55141085861868 H 0.0 **** 0.06
5021 C 89.24219286091045 137.86799122172528 14.122896609920744 C 0.0 **** -0.24
5022 H 88.58368074264206 137.6978167834201 14.975849232706437 H 0.0 **** 0.06
5023 H 89.24359454993746 136.98490143586562 13.483889450815397 H 0.0 **** 0.06
5024 H 90.25389689464055 138.06273574309975 14.478064445352288 H 0.0 **** 0.06
5025 H 88.88410087546234 138.72694848326887 13.55503637730088 H 0.0 **** 0.06
5026 C 40.68918875528084 157.5416583442566 33.57613273319771 C 0.0 **** -0.24
5027 H 40.49715353416417 158.43890947643834 32.98691750613273 H 0.0 **** 0.06
5028 H 41.276432915849114 156.83894252514614 32.98495217107893 H 0.0 **** 0.06
5029 H 39.74154176558807 157.08037626208048 33.854125009678285 H 0.0 **** 0.06
5030 H 41.24102400561645 157.81083956435785 34.47614661412567 H 0.0 **** 0.06
5031 C 10.208952130074408 147.9580838525234 15.714444965964304 C 0.0 **** -0.24
5032 H 9.824464763828303 147.92943010667037 16.7335127212248 H 0.0 **** 0.06
5033 H 10.269069948283118 148.99257132861763 15.377320096548715 H 0.0 **** 0.06
5034 H 9.539721889187092 147.40043207694796 15.057979353204928 H 0.0 **** 0.06
5035 H 11.201730759230259 147.50825356541918 15.68735250666424 H 0.0 **** 0.06
5036 C 134.2829267952891 67.25866732680936 131.1818582919926 C 0.0 **** -0.24
5037 H 133.88766946942715 68.25469769749178 130.9832586402312 H 0.0 **** 0.06
5038 H 134.4737550810182 66.7475817193429 130.23762962631264 H 0.0 **** 0.06
5039 H 133.557459134214 66.68957930522325 131.7634605493372 H 0.0 **** 0.06
5040 H 135.21341035165653 67.34360389543635 131.74409741827228 H 0.0 **** 0.06
5041 C 34.186726115312766 92.28740869592423 36.02032523819878 C 0.0 **** -0.24
5042 H 35.133707303759195 92.55768325125015 36.486373467967496 H 0.0 **** 0.06
5043 H 33.65158924730895 93.19239565221193 35.734678954763666 H 0.0 **** 0.06
5044 H 33.58457951551661 91.71598535603678 36.72589628076199 H 0.0 **** 0.06
5045 H 34.3782984147511 91.68258223622752 35.133711624043656 H 0.0 **** 0.06
5046 C 159.262980680502 151.58242036656594 187.75347191632994 C 0.0 **** -0.24
5047 H 158.21066485399115 151.8086201291339 187.5829470194281 H 0.0 **** 0.06
5048 H 159.3773125070336 151.0938544172294 188.7219631472706 H 0.0 **** 0.06
5049 H 159.83986826817622 152.5078342665816 187.74281672267927 H 0.0 **** 0.06
5050 H 159.62423535811786 150.9194019121776 186.96788535150142 H 0.0 **** 0.06
5051 C 148.7102119488976 24.506540989638495 6.285302907890689 C 0.0 **** -0.24
5052 H 147.9019191033446 24.677107537396097 6.996808651533897 H 0.0 **** 0.06
5053 H 148.309725566505 24.510094156313187 5.271690699706866 H 0.0 **** 0.06
5054 H 149.17526110359134 23.541396059649458 6.490047296374449 H 0.0 **** 0.06
5055 H 149.4546242809523 25.295983724891386 6.3858320898869465 H 0.0 **** 0.06
5056 C 55.965834615397966 50.69190595134478 128.31036063665357 C 0.0 **** -0.24
5057 H 56.61776886310054 50.01741584728134 127.75568910501462 H 0.0 **** 0.06
5058 H 54.93357815771731 50.35174181886924 128.22436841061443 H 0.0 **** 0.06
5059 H 56.05195840175543 51.699204204282964 127.90106778612099 H 0.0 **** 0.06
5060 H 56.25932601858079 50.7004666744531 129.36009640996443 H 0.0 **** 0.06
5061 C 83.9483371019785 20.78279802299167 31.41715381417346 C 0.0 **** -0.24
5062 H 84.79859060997956 20.531556877421252 30.784187376737023 H 0.0 **** 0.06
5063 H 83.05728133873774 20.271943929760823 31.049465836732793 H 0.0 **** 0.06
5064 H 83.78419574179756 21.860934808352113 31.396049211693153 H 0.0 **** 0.06
5065 H 84.15208038179588 20.466455573632913 32.44102678083158 H 0.0 **** 0.06
5066 C 17.654491324044272 39.11844087490687 149.9818316454427 C 0.0 **** -0.24
5067 H 18.698632071416284 39.420958281701104 149.90556901412407 H 0.0 **** 0.06
5068 H 17.52846598811891 38.13116835523476 149.53529910514357 H 0.0 **** 0.06
5069 H 17.028177404312657 39.838366047589005 149.45578860128384 H 0.0 **** 0.06
5070 H 17.36342876867303 39.081220369054165 151.03178779403618 H 0.0 **** 0.06
5071 C 173.77957600898657 52.65713284582395 15.69168492138516 C 0.0 **** -0.24
5072 H 174.53518248938184 52.483222176955564 16.45747510019649 H 0.0 **** 0.06
5073 H 173.38400108063965 51.70067106150594 15.347638344079314 H 0.0 **** 0.06
5074 H 174.22768811988888 53.18904080651586 14.852391682614297 H 0.0 **** 0.06
5075 H 172.96922356381197 53.25573740604867 16.109553573073654 H 0.0 **** 0.06
5076 C 17.133263725926483 102.62506057519482 76.8168711458124 C 0.0 **** -0.24
5077 H 16.117114141538153 102.42206400080272 77.15598043430884 H 0.0 **** 0.06
5078 H 17.236252627289616 103.68788795952665 76.59666457787989 H 0.0 **** 0.06
5079 H 17.33737243080769 102.04632600504647 75.91630098983751 H 0.0 **** 0.06
5080 H 17.839524658535098 102.34527490166732 77.59783665739951 H 0.0 **** 0.06
5081 C 198.2868841590798 167.04410918386728 59.75345247877044 C 0.0 **** -0.24
5082 H 199.01291376409293 166.89108399948276 58.95464023582707 H 0.0 **** 0.06
5083 H 197.90088397904236 168.06262862046742 59.70257302024186 H 0.0 **** 0.06
5084 H 198.76892435565995 166.88505728132657 60.71815472714553 H 0.0 **** 0.06
5085 H 197.4652776594271 166.3370279113945 59.63660416631433 H 0.0 **** 0.06
5086 C 3.0951157770882674 72.31630150267553 184.14907212679793 C 0.0 **** -0.24
5087 H 2.1394499377124703 72.82213196529452 184.2862327119333 H 0.0 **** 0.06
5088 H 3.7662913511452984 72.95694845329506 183.57667932004654 H 0.0 **** 0.06
5089 H 2.936625270383132 71.382304630644 183.6101386608791 H 0.0 **** 0.06
5090 H 3.537393663285144 72.10374442592008 185.1225306259271 H 0.0 **** 0.06
5091 C 98.74977936676112 101.85217268432677 44.43704238102346 C 0.0 **** -0.24
5092 H 98.62153448947373 101.61048110703271 45.49271569285227 H 0.0 **** 0.06
5093 H 99.60533151205453 101.30383893204214 44.04060532188157 H 0.0 **** 0.06
5094 H 98.92319852600332 102.9232759007678 44.32793966858921 H 0.0 **** 0.06
5095 H 97.85148571191183 101.57100444505883 43.888348850434454 H 0.0 **** 0.06
5096 C 20.088424575884744 75.47861968170027 174.1159591266616 C 0.0 **** -0.24
5097 H 19.89822066970146 74.42399992210643 173.9132614478159 H 0.0 **** 0.06
5098 H 19.168695957734315 76.04656197374383 173.97902306520803 H 0.0 **** 0.06
5099 H 20.850361379417876 75.84811056567892 173.4291421996333 H 0.0 **** 0.06
5100 H 20.438285023993842 75.59383859596082 175.14160279802832 H 0.0 **** 0.06
5101 C 173.17307209855133 112.28818452566304 140.40149232466104 C 0.0 **** -0.24
5102 H 172.40293558525678 111.75793121637383 139.84030351044947 H 0.0 **** 0.06
5103 H 173.0639901313341 112.06946609201461 141.46337510392098 H 0.0 **** 0.06
5104 H 173.06819866105934 113.36002299231788 140.23705838866502 H 0.0 **** 0.06
5105 H 174.15637211786265 111.96332642730388 140.06216511023288 H 0.0 **** 0.06
5106 C 77.38479333730257 167.90851613497597 79.6262389264503 C 0.0 **** -0.24
5107 H 76.67727781002094 168.14213251412747 80.42187002824534 H 0.0 **** 0.06
5108 H 76.85479456898446 167.84574137589658 78.6759509106995 H 0.0 **** 0.06
5109 H 77.86740368286978 166.95415046196433 79.83778822808696 H 0.0 **** 0.06
5110 H 78.13956314522468 168.69335363808182 79.5698533896236 H 0.0 **** 0.06
5111 C 110.0207411957914 93.26538992275994 89.70833400787933 C 0.0 **** -0.24
5112 H 110.58603834055754 94.15396058083036 89.98959368991584 H 0.0 **** 0.06
5113 H 109.73754748822034 92.71575571259945 90.60685906299437 H 0.0 **** 0.06
5114 H 110.63725332101524 92.62934515230324 89.07283456621693 H 0.0 **** 0.06
5115 H 109.12389706613419 93.56226996925108 89.165725031487 H 0.0 **** 0.06
5116 C 156.22105721549713 170.44401852941573 168.9064662236032 C 0.0 **** -0.24
5117 H 156.26499717284742 170.91058870424212 169.8913729542699 H 0.0 **** 0.06
5118 H 155.57296725901602 171.0320209687089 168.25645758839664 H 0.0 **** 0.06
5119 H 155.82236535945322 169.434281612798 169.00108034482642 H 0.0 **** 0.06
5120 H 157.22251429040267 170.40163345515128 168.48012847041053 H 0.0 **** 0.06
5121 C 64.47772126800601 64.5844105203999 189.7724491716371 C 0.0 **** -0.24
5122 H 64.01370444285158 65.47914962155525 189.3559902478159 H 0.0 **** 0.06
5123 H 64.28422100680018 64.541753234506 190.8448785234089 H 0.0 **** 0.06
5124 H 65.55269208475306 64.61799822210445 189.59737125940242 H 0.0 **** 0.06
5125 H 64.05828694743116 63.70120526233386 189.29148660773194 H 0.0 **** 0.06
5126 C 39.84867454890002 129.74115646285367 142.90415641484 C 0.0 **** -0.24
5127 H 40.72746328493804 129.45881210907226 143.483920768612 H 0.0 **** 0.06
5128 H 38.95157285856675 129.5786778822797 143.50219317483936 H 0.0 **** 0.06
5129 H 39.798821920764226 129.13406245024868 142.00066140022304 H 0.0 **** 0.06
5130 H 39.91757249025784 130.79427583360672 142.6308592221607 H 0.0 **** 0.06
5131 C 193.05332374487017 32.77881225863615 7.368240584582395 C 0.0 **** -0.24
5132 H 193.71946678692998 33.63981044182512 7.312857743986399 H 0.0 **** 0.06
5133 H 192.22183807567058 33.00587280329245 8.035520717029328 H 0.0 **** 0.06
5134 H 193.6032994349643 31.919310069896056 7.75097992361259 H 0.0 **** 0.06
5135 H 192.66949860195155 32.55229719311899 6.372517776687204 H 0.0 **** 0.06
5136 C 61.57476789540296 104.13294896623151 151.27445170878264 C 0.0 **** -0.24
5137 H 61.98487915982402 105.11485607718069 151.0392117264904 H 0.0 **** 0.06
5138 H 60.67066603813676 103.96753437472324 150.68814587059063 H 0.0 **** 0.06
5139 H 61.33260288323298 104.08608648174379 152.33636870437502 H 0.0 **** 0.06
5140 H 62.31015011115436 103.36540402635484 151.03384739068758 H 0.0 **** 0.06
5141 C 128.81084903165186 132.42936299604787 47.30700565753112 C 0.0 **** -0.24
5142 H 128.20452668594135 132.89022910830147 46.52797722658356 H 0.0 **** 0.06
5143 H 129.09014009455797 133.18235528102218 48.043249354048854 H 0.0 **** 0.06
5144 H 129.7105550400886 132.00291388282892 46.862391269311004 H 0.0 **** 0.06
5145 H 128.2375893545992 131.63980453511033 47.79420735057158 H 0.0 **** 0.06
5146 C 103.08457009112146 70.8977880182992 165.40371546577106 C 0.0 **** -0.24
5147 H 104.05040168850172 70.95642558098125 165.90584159585177 H 0.0 **** 0.06
5148 H 102.54464886978337 71.83422762753602 165.54590065203317 H 0.0 **** 0.06
5149 H 102.50550931503278 70.07574312169194 165.82415033838467 H 0.0 **** 0.06
5150 H 103.23874005211974 70.72585814136472 164.33764817888095 H 0.0 **** 0.06
5151 C 134.02997928813784 45.25138060542534 192.6156542984238 C 0.0 **** -0.24
5152 H 133.18286773278095 45.91865431291782 192.77616132469643 H 0.0 **** 0.06
5153 H 134.0853122100042 44.98182292649514 191.56040047428388 H 0.0 **** 0.06
5154 H 133.90176155382403 44.35003057414775 193.21436875405362 H 0.0 **** 0.06
5155 H 134.9509193329676 45.755378812962874 192.91069827243405 H 0.0 **** 0.06
5156 C 190.01297839091797 156.7721196499475 67.64400165829366 C 0.0 **** -0.24
5157 H 189.28206090454984 156.44290721089172 66.90586856285597 H 0.0 **** 0.06
5158 H 190.9014124927608 156.1435350588317 67.58135226585553 H 0.0 **** 0.06
5159 H 189.58176014207567 156.6927464740469 68.6431224992332 H 0.0 **** 0.06
5160 H 190.28515252892998 157.80903381825067 67.44756102288561 H 0.0 **** 0.06
5161 C 195.70552973782765 11.964286641328158 98.32652632855235 C 0.0 **** -0.24
5162 H 195.09497460531406 12.41811339875511 97.5459807602069 H 0.0 **** 0.06
5163 H 195.0612321448589 11.441323166579934 99.03355992524499 H 0.0 **** 0.06
5164 H 196.2626703938928 12.742615302387605 98.8494962144712 H 0.0 **** 0.06
5165 H 196.40316009865157 11.258028461358293 97.8776901444584 H 0.0 **** 0.06
5166 C 144.67695194739545 53.92486416091805 63.85038616122603 C 0.0 **** -0.24
5167 H 145.31688903235204 53.38701097638176 64.55005834646829 H 0.0 **** 0.06
5168 H 144.96587259070063 54.97618209586972 63.82786575482669 H 0.0 **** 0.06
5169 H 143.63774778883203 53.8393647788144 64.16863176479319 H 0.0 **** 0.06
5170 H 144.78768262978446 53.495631594636166 62.85449218756412 H 0.0 **** 0.06
5171 C 152.48553778615474 67.20273587656567 65.02760870595478 C 0.0 **** -0.24
5172 H 151.44430877394632 67.21215271310535 65.3509648020256 H 0.0 **** 0.06
5173 H 153.0443561837361 67.95388631062931 65.58564965625419 H 0.0 **** 0.06
5174 H 152.5379366763314 67.4274842911131 63.962882373601644 H 0.0 **** 0.06
5175 H 152.91427241482916 66.21788855070136 65.2134178788084 H 0.0 **** 0.06
5176 C 10.4665001405628 124.5883050388087 4.656090478721005 C 0.0 **** -0.24
5177 H 10.29945270704738 125.31798546193389 3.863740607403983 H 0.0 **** 0.06
5178 H 9.51530839510579 124.34243655439315 5.128868066783497 H 0.0 **** 0.06
5179 H 11.144704692837678 125.0075121430963 5.398800822192399 H 0.0 **** 0.06
5180 H 10.905910682859627 123.68554216206388 4.231709462050588 H 0.0 **** 0.06
5181 C 137.7635866274991 143.47516362535458 31.907313958268062 C 0.0 **** -0.24
5182 H 136.90894059257673 143.3408699532613 31.24487148583026 H 0.0 **** 0.06
5183 H 138.66869458335307 143.59713704858945 31.31258061617359 H 0.0 **** 0.06
5184 H 137.86620224861073 142.60043247655608 32.55058852164511 H 0.0 **** 0.06
5185 H 137.61063029597858 144.36214255171095 32.5226223693835 H 0.0 **** 0.06
5186 C 94.7992618303669 149.6659635658445 27.18097360682225 C 0.0 **** -0.24
5187 H 95.72638676681365 150.1331578604883 27.513881308196773 H 0.0 **** 0.06
5188 H 94.14069107426937 149.51670555728316 28.0362175919048 H 0.0 **** 0.06
5189 H 95.02166537626434 148.7033322341437 26.720682110133566 H 0.0 **** 0.06
5190 H 94.30874149246304 150.31209095283248 26.452243270808736 H 0.0 **** 0.06
5191 C 23.033243827739682 27.245651080202535 28.747356937471807 C 0.0 **** -0.24
5192 H 22.100321384883102 27.455715161736293 28.223983757193736 H 0.0 **** 0.06
5193 H 22.812246404891454 26.797865996861887 29.71588846792838 H 0.0 **** 0.06
5194 H 23.584664062048063 28.174270380798205 28.89356772719924 H 0.0 **** 0.06
5195 H 23.63322658048702 26.555143540643513 28.154113538977384 H 0.0 **** 0.06
5196 C 24.86129527708465 71.07315300192464 73.48724240656027 C 0.0 **** -0.24
5197 H 25.181878063510922 71.80410635428952 72.74478664325294 H 0.0 **** 0.06
5198 H 25.240072911752293 71.36075880065958 74.46783359696637 H 0.0 **** 0.06
5199 H 25.250064269849915 70.09002263306064 73.22042215391318 H 0.0 **** 0.06
5200 H 23.77184479754274 71.03650371575748 73.51426431740344 H 0.0 **** 0.06
5201 C 83.60965166705873 109.6118378513514 174.19486504670965 C 0.0 **** -0.24
5202 H 82.69517697655186 109.52855049387415 173.60783614419438 H 0.0 **** 0.06
5203 H 84.42722678860358 109.93156753582593 173.54931139552446 H 0.0 **** 0.06
5204 H 83.84894580701013 108.64297939314284 174.63295211548632 H 0.0 **** 0.06
5205 H 83.46506783264445 110.34467553239855 174.98953237306034 H 0.0 **** 0.06
5206 C 178.77745792840443 56.08826113927239 188.7069833688575 C 0.0 **** -0.24
5207 H 179.03955796596176 57.096839319276796 188.3886921677004 H 0.0 **** 0.06
5208 H 179.68799157974087 55.50312683055654 188.8417647684813 H 0.0 **** 0.06
5209 H 178.15274018429363 55.61787956726192 187.94735016168977 H 0.0 **** 0.06
5210 H 178.2324550146257 56.13358018150308 189.64918062153384 H 0.0 **** 0.06
5211 C 42.31407865216674 106.89648365098816 107.29868103410016 C 0.0 **** -0.24
5212 H 42.741983759159666 105.94180637534669 106.99322859122404 H 0.0 **** 0.06
5213 H 41.6337124579852 107.25268609545284 106.52447862791763 H 0.0 **** 0.06
5214 H 43.113551349269144 107.62237367575068 107.44317579525736 H 0.0 **** 0.06
5215 H 41.76702673409122 106.76640492620842 108.23246120483694 H 0.0 **** 0.06
5216 C 183.18753429471374 191.24429281542479 166.5179355112017 C 0.0 **** -0.24
5217 H 183.99101359577332 191.5281185513386 165.8387774799766 H 0.0 **** 0.06
5218 H 182.23503072327642 191.27972739960808 165.99041016501937 H 0.0 **** 0.06
5219 H 183.16303458037729 191.93652015411675 167.35963424637072 H 0.0 **** 0.06
5220 H 183.36349511721625 190.23297742369184 166.88575431086133 H 0.0 **** 0.06
5221 C 197.99379019362038 73.52520895370625 70.30148436984166 C 0.0 **** -0.24
5222 H 198.4142710843801 73.69806093467997 69.31113863133618 H 0.0 **** 0.06
5223 H 196.94752002202097 73.23547717315635 70.20570389607067 H 0.0 **** 0.06
5224 H 198.06501905528853 74.44000919185179 70.89137732190652 H 0.0 **** 0.06
5225 H 198.54840617494568 72.72890997699947 70.7983241274771 H 0.0 **** 0.06
5226 C 32.499436875735455 113.72428157121067 180.29004548594202 C 0.0 **** -0.24
5227 H 33.1301683721633 114.05558818532427 179.4652567954187 H 0.0 **** 0.06
5228 H 32.665867337369036 112.6609025564942 180.4692149819617 H 0.0 **** 0.06
5229 H 31.45219079112323 113.89029893822976 180.03648372863586 H 0.0 **** 0.06
5230 H 32.74951182833368 114.2876480296444 181.1883480002551 H 0.0 **** 0.06
5231 C 76.78600185569775 131.5620353557929 110.74666913854315 C 0.0 **** -0.24
5232 H 77.51899406350259 132.11197768223582 110.15601056220694 H 0.0 **** 0.06
5233 H 76.28694702732678 130.82765033515648 110.11357386488996 H 0.0 **** 0.06
5234 H 76.047462159888 132.25694770172123 111.14735311450184 H 0.0 **** 0.06
5235 H 77.2894173725765 131.05187598865956 111.5678694301331 H 0.0 **** 0.06
5236 C 153.1775920057899 6.426636708353527 142.87328383749275 C 0.0 **** -0.24
5237 H 153.1302376134442 7.494317055821767 143.09310187907005 H 0.0 **** 0.06
5238 H 154.20020067537473 6.073232622092064 143.00850499134972 H 0.0 **** 0.06
5239 H 152.86661117752766 6.254219787119098 141.84350619857642 H 0.0 **** 0.06
5240 H 152.51320019670368 5.887653270642545 143.54886807741494 H 0.0 **** 0.06
5241 C 68.4306829866053 91.84100079761055 76.98717387516321 C 0.0 **** -0.24
5242 H 68.70385418113825 91.05623030163162 77.69218127719932 H 0.0 **** 0.06
5243 H 68.95230531699349 91.67848495864314 76.0433775763098 H 0.0 **** 0.06
5244 H 68.7135676142363 92.81116643801155 77.3968928298827 H 0.0 **** 0.06
5245 H 67.35516130624845 91.81873021713955 76.81723336830372 H 0.0 **** 0.06
5246 C 64.29957037307622 175.626392976857 137.39470595119988 C 0.0 **** -0.24
5247 H 63.82627512242195 176.2926948645974 136.67270518438286 H 0.0 **** 0.06
5248 H 64.98410248682343 174.95578331755948 136.87551990832966 H 0.0 **** 0.06
5249 H 63.53462355927631 175.04224708813285 137.90460946920132 H 0.0 **** 0.06
5250 H 64.85338439398775 176.21751598310854 138.12462397513335 H 0.0 **** 0.06
5251 C 12.52145488185326 111.91087858346307 183.7680906031887 C 0.0 **** -0.24
5252 H 13.588136482795903 111.84674011071434 183.55252551530154 H 0.0 **** 0.06
5253 H 11.972334263725628 111.27211110422834 183.07664405651917 H 0.0 **** 0.06
5254 H 12.190333251915945 112.94268366109318 183.65241683612322 H 0.0 **** 0.06
5255 H 12.338142946277571 111.58244684386443 184.79080805895228 H 0.0 **** 0.06
5256 C 109.62026503518098 52.1355684051003 130.62555681707784 C 0.0 **** -0.24
5257 H 108.69328647025554 52.51280486559348 131.05754533280754 H 0.0 **** 0.06
5258 H 110.46490184900205 52.47883389501632 131.22274031777124 H 0.0 **** 0.06
5259 H 109.72204747639432 52.50534392164863 129.6050916820946 H 0.0 **** 0.06
5260 H 109.59983071580314 51.04521443739013 130.61693282186806 H 0.0 **** 0.06
5261 C 48.43061179808103 89.55075385387875 147.28583921788814 C 0.0 **** -0.24
5262 H 49.180225834321504 89.48768335584543 146.49703785418475 H 0.0 **** 0.06
5263 H 48.909010355027704 89.40230015066413 148.25432877269378 H 0.0 **** 0.06
5264 H 47.67510682657473 88.78038803281174 147.13205879742586 H 0.0 **** 0.06
5265 H 47.95810417640013 90.53264387619367 147.25993144724805 H 0.0 **** 0.06
5266 C 5.149005557101681 142.0141840608303 116.8553525792208 C 0.0 **** -0.24
5267 H 5.528959314537779 141.0847303206765 117.2793886253927 H 0.0 **** 0.06
5268 H 4.207319249217605 142.27419896629698 117.33816187437378 H 0.0 **** 0.06
5269 H 4.985922184871669 141.8840010137248 115.78549657442082 H 0.0 **** 0.06
5270 H 5.874986305007006 142.81086732987833 117.01827406032933 H 0.0 **** 0.06
5271 C 176.44135367492467 23.030890466434585 5.343531564131297 C 0.0 **** -0.24
5272 H 176.3783238052151 23.08512177399834 4.256388106206913 H 0.0 **** 0.06
5273 H 175.4453607606862 22.869153600686687 5.7571279949673055 H 0.0 **** 0.06
5274 H 176.84976902756597 23.963757920216167 5.73096784945983 H 0.0 **** 0.06
5275 H 177.0913857993282 22.203205201316322 5.627575619605352 H 0.0 **** 0.06
5276 C 57.43090760431551 44.66378855418492 96.10183659242966 C 0.0 **** -0.24
5277 H 58.33100198503246 44.43373711309093 95.53265375702802 H 0.0 **** 0.06
5278 H 57.70416021295277 45.19048196167523 97.01692062020254 H 0.0 **** 0.06
5279 H 56.915379336650304 43.737722083665346 96.35646020072693 H 0.0 **** 0.06
5280 H 56.77374295237327 45.29307347787346 95.50319667810663 H 0.0 **** 0.06
5281 C 166.4937868683317 44.45990296105764 113.91259880508397 C 0.0 **** -0.24
5282 H 165.50611722799528 44.92035389200309 113.90809418043037 H 0.0 **** 0.06
5283 H 166.9958877143955 44.685476126029045 114.85433720185503 H 0.0 **** 0.06
5284 H 167.08269245594528 44.85282429036022 113.08354046603876 H 0.0 **** 0.06
5285 H 166.3909604803576 43.3799518580947 113.80527668430597 H 0.0 **** 0.06
5286 C 118.20359365152316 21.376791614396723 114.10534874749547 C 0.0 **** -0.24
5287 H 117.68126664589107 20.42190361458219 114.049294467207 H 0.0 **** 0.06
5288 H 118.5056331936824 21.56572277208683 115.13531564378314 H 0.0 **** 0.06
5289 H 117.5390784153877 22.172959058449763 113.76917529169961 H 0.0 **** 0.06
5290 H 119.0856618786938 21.34564399216829 113.46680656301214 H 0.0 **** 0.06
5291 C 133.6162672915681 38.51657728360448 195.96231350008904 C 0.0 **** -0.24
5292 H 132.5688947726554 38.7663589915218 196.12588166575557 H 0.0 **** 0.06
5293 H 133.72255301138708 38.00321705070925 195.00640120797257 H 0.0 **** 0.06
5294 H 133.96415204654372 37.866117187400576 196.76502113715702 H 0.0 **** 0.06
5295 H 134.21068410856205 39.43067704951099 195.9526715374016 H 0.0 **** 0.06
5296 C 186.65348973840938 72.39564616873702 167.1690413083038 C 0.0 **** -0.24
5297 H 187.39030934041043 71.63412298667872 167.42448210173364 H 0.0 **** 0.06
5298 H 186.50921141072254 73.06074667396936 168.0206907506435 H 0.0 **** 0.06
5299 H 185.70763348217724 71.91528061533984 166.91901619799347 H 0.0 **** 0.06
5300 H 187.00603751249815 72.97082283955726 166.31332317078864 H 0.0 **** 0.06
5301 C 34.88344452996154 102.50486009843382 84.8291242050127 C 0.0 **** -0.24
5302 H 33.935234314914 102.7439200368101 85.31155496222561 H 0.0 **** 0.06
5303 H 34.80940598807965 101.52995873134364 84.34628849644366 H 0.0 **** 0.06
5304 H 35.67579446052349 102.48023931792403 85.57830650695973 H 0.0 **** 0.06
5305 H 35.11337175340202 103.26514425258381 84.08278972562124 H 0.0 **** 0.06
5306 C 65.10690460401503 132.4691577418564 66.2387602905211 C 0.0 **** -0.24
5307 H 65.63798321772134 133.23829752943277 66.79892648062076 H 0.0 **** 0.06
5308 H 64.10500202748224 132.82294250461132 65.9964438812608 H 0.0 **** 0.06
5309 H 65.03600802860012 131.56420757134788 66.8441276146803 H 0.0 **** 0.06
5310 H 65.64859926901156 132.24941637083182 65.31988801558072 H 0.0 **** 0.06
5311 C 9.405404483046993 150.5977637717941 87.94838950277776 C 0.0 **** -0.24
5312 H 8.74157307640013 150.59911381661675 88.81329396970648 H 0.0 **** 0.06
5313 H 10.301350857807336 151.17509366290435 88.17829163333238 H 0.0 **** 0.06
5314 H 8.893006023988676 151.0442336225522 87.09609015503355 H 0.0 **** 0.06
5315 H 9.684954431935239 149.57203079949238 87.70733891890455 H 0.0 **** 0.06
5316 C 86.03217298082961 164.3048151015734 61.63624737266878 C 0.0 **** -0.24
5317 H 85.77765746191974 165.23472401860866 61.12706473986884 H 0.0 **** 0.06
5318 H 85.31019691199131 164.11774758161928 62.43197346241516 H 0.0 **** 0.06
5319 H 87.03158654712854 164.38661006579267 62.06393510553875 H 0.0 **** 0.06
5320 H 86.00774570758432 163.48116372983492 60.92289023657605 H 0.0 **** 0.06
5321 C 105.27775989186131 1.899106638463934 25.185462273901166 C 0.0 **** -0.24
5322 H 105.1723459293778 1.7107589110679555 26.254585627430913 H 0.0 **** 0.06
5323 H 105.51572781600598 0.9655609647966799 24.673944472644365 H 0.0 **** 0.06
5324 H 106.07970761896016 2.6183891771141248 25.020549733804273 H 0.0 **** 0.06
5325 H 104.34366636588553 2.2993825195355555 24.793386833564725 H 0.0 **** 0.06
5326 C 161.53077103530313 63.61867483702402 86.98711541848837 C 0.0 **** -0.24
5327 H 160.49075134362585 63.556250780656015 86.66561117629504 H 0.0 **** 0.06
5328 H 162.02619743743878 62.66623992311213 86.80035331506838 H 0.0 **** 0.06
5329 H 161.56808043032777 63.84484870587289 88.05278519591144 H 0.0 **** 0.06
5330 H 162.03609747872736 64.40782508776832 86.43068775787108 H 0.0 **** 0.06
5331 C 133.03955941840061 59.64376350550364 128.38448050992193 C 0.0 **** -0.24
5332 H 132.9732780197715 60.536112938681484 129.0070935137302 H 0.0 **** 0.06
5333 H 132.95478440542897 58.75584440931557 129.01270308558867 H 0.0 **** 0.06
5334 H 133.99866546909465 59.632632060843946 127.86650139711654 H 0.0 **** 0.06
5335 H 132.23112336702226 59.649162033337106 127.653400016056 H 0.0 **** 0.06
5336 C 126.5171644420156 119.00495888548363 184.21775352004315 C 0.0 **** -0.24
5337 H 126.8595582744554 119.5140179358051 185.1193787498798 H 0.0 **** 0.06
5338 H 125.42709379061174 118.97778817059003 184.20803596809583 H 0.0 **** 0.06
5339 H 126.90649422955386 117.98716194708425 184.2052883227704 H 0.0 **** 0.06
5340 H 126.87522767460774 119.54218402194203 183.33940019627943 H 0.0 **** 0.06
5341 C 170.3872240778697 95.2524184531317 74.91827432139617 C 0.0 **** -0.24
5342 H 169.64679503386532 96.04168591885076 74.7848824195359 H 0.0 **** 0.06
5343 H 170.13266082482264 94.66119227863052 75.7984401372783 H 0.0 **** 0.06
5344 H 171.3727125541963 95.69755532881848 75.05148575169451 H 0.0 **** 0.06
5345 H 170.39454187620265 94.6093444772053 74.0378301106178 H 0.0 **** 0.06
5346 C 82.2763707045091 101.61989361496046 53.97833685419036 C 0.0 **** -0.24
5347 H 81.51082429725199 101.79530079197019 54.7343227721437 H 0.0 **** 0.06
5348 H 81.80819090724552 101.25224088126362 53.06533968916932 H 0.0 **** 0.06
5349 H 82.98708463236744 100.88049600461409 54.34581140032799 H 0.0 **** 0.06
5350 H 82.79923799515916 102.5534901744702 53.768952139829224 H 0.0 **** 0.06
5351 C 30.76100732019711 80.31678451840776 125.59885066201375 C 0.0 **** -0.24
5352 H 31.55244361666655 79.66826417096902 125.22513339218656 H 0.0 **** 0.06
5353 H 31.046373421745983 80.71256365186238 126.5749222813424 H 0.0 **** 0.06
5354 H 29.837153456968082 79.74644888056079 125.69343382112609 H 0.0 **** 0.06
5355 H 30.608797056142947 81.14216896433669 124.90227384094118 H 0.0 **** 0.06
5356 C 157.28563259008484 58.70317579882797 94.859452311611 C 0.0 **** -0.24
5357 H 157.48848316330788 57.850538248610974 94.21152983801579 H 0.0 **** 0.06
5358 H 156.26114582317854 58.6457265545252 95.22558904256232 H 0.0 **** 0.06
5359 H 157.41978973876877 59.62682140636471 94.29658169590823 H 0.0 **** 0.06
5360 H 157.97535924204703 58.68865772025822 95.70427660518533 H 0.0 **** 0.06
5361 C 150.53540819174773 21.171585671638184 4.161024034914014 C 0.0 **** -0.24
5362 H 151.45530690239468 21.71217590968871 4.387594720132206 H 0.0 **** 0.06
5363 H 150.34957085411355 20.429997715669202 4.938239242918492 H 0.0 **** 0.06
5364 H 150.63587111583396 20.672766456999113 3.197724368420772 H 0.0 **** 0.06
5365 H 149.70265389815881 21.874469256030466 4.12174736873807 H 0.0 **** 0.06
5366 C 27.876724191941804 109.73269547019405 16.771225075975792 C 0.0 **** -0.24
5367 H 28.59176904459636 110.52826608440287 16.56023466720606 H 0.0 **** 0.06
5368 H 28.379855405891533 108.92507579323552 17.303270308137428 H 0.0 **** 0.06
5369 H 27.469556547381444 109.35325729279148 15.834422084405674 H 0.0 **** 0.06
5370 H 27.0673602036523 110.12660515966837 17.38631920175493 H 0.0 **** 0.06
5371 C 85.04621847325629 116.42714638294783 37.6793610876972 C 0.0 **** -0.24
5372 H 84.10346398779421 116.30247344893394 38.21262868937754 H 0.0 **** 0.06
5373 H 85.0805001882166 117.42068269059934 37.231474864647225 H 0.0 **** 0.06
5374 H 85.12443344124566 115.67218834659852 36.897626193554004 H 0.0 **** 0.06
5375 H 85.8757844162092 116.31379842722762 38.37776661788382 H 0.0 **** 0.06
5376 C 159.16127024662978 70.09226447587548 165.3419002362303 C 0.0 **** -0.24
5377 H 159.52213241392485 69.63778923187195 166.26525686194702 H 0.0 **** 0.06
5378 H 159.93626856185432 70.0276722191349 164.5788313587617 H 0.0 **** 0.06
5379 H 158.9156201404 71.1387572580943 165.52474328953969 H 0.0 **** 0.06
5380 H 158.270836863726 69.56407797115807 165.00198984536223 H 0.0 **** 0.06
5381 C 140.70173033988334 77.76735750674976 16.14612265535459 C 0.0 **** -0.24
5382 H 140.2544043358686 78.49714684173364 15.470298207920507 H 0.0 **** 0.06
5383 H 141.74910956000025 77.62277060545898 15.882556603155194 H 0.0 **** 0.06
5384 H 140.16993788034023 76.81951964403726 16.059856439613895 H 0.0 **** 0.06
5385 H 140.63077512602416 78.13123997341836 17.171349264334708 H 0.0 **** 0.06
5386 C 197.525710230504 77.74314306654355 171.3534689070974 C 0.0 **** -0.24
5387 H 197.88627347239498 78.7392617100229 171.09954480523913 H 0.0 **** 0.06
5388 H 197.21612846089752 77.22585890806022 170.44460426427844 H 0.0 **** 0.06
5389 H 196.677197619009 77.8250498345671 172.03163207262708 H 0.0 **** 0.06
5390 H 198.32428976889076 77.18078018251845 171.8369669756542 H 0.0 **** 0.06
5391 C 7.790141278342503 157.86797168616343 197.9628011428258 C 0.0 **** -0.24
5392 H 7.706725789961439 157.0154597047906 197.28836221225677 H 0.0 **** 0.06
5393 H 8.67856566626483 157.75267366891313 198.58459224968345 H 0.0 **** 0.06
5394 H 6.9051601356866 157.91563501979465 198.59766827469664 H 0.0 **** 0.06
5395 H 7.869108356970003 158.78512089198756 197.38065324236507 H 0.0 **** 0.06
5396 C 174.1044318158995 37.991727838216605 79.93494518409952 C 0.0 **** -0.24
5397 H 173.75058982091807 36.960786730856796 79.95249407211031 H 0.0 **** 0.06
5398 H 173.25869130474675 38.66763294154015 80.06078221501505 H 0.0 **** 0.06
5399 H 174.59044138397388 38.19184671211886 78.97937632437609 H 0.0 **** 0.06
5400 H 174.81703949052684 38.144758083750304 80.74457701321825 H 0.0 **** 0.06
5401 C 1.1337982936039452 152.0698428297487 54.58022352851131 C 0.0 **** -0.24
5402 H 0.26795521884355367 152.72422618185215 54.48156821639779 H 0.0 **** 0.06
5403 H 1.7256213467264843 152.1108383692581 53.665284982866694 H 0.0 **** 0.06
5404 H 0.7984311243275215 151.04759978976426 54.75117287911917 H 0.0 **** 0.06
5405 H 1.7428852013351275 152.39904951635705 55.42221805541601 H 0.0 **** 0.06
5406 C 76.5217599320647 105.70514058929996 44.4976976206967 C 0.0 **** -0.24
5407 H 76.38634388817806 106.77845935334702 44.62945117720122 H 0.0 **** 0.06
5408 H 77.01001471869426 105.51623861130534 43.54129864383839 H 0.0 **** 0.06
5409 H 75.54987905472845 105.21259109230147 44.51413602170838 H 0.0 **** 0.06
5410 H 77.14137798300018 105.31473142991408 45.30516826846933 H 0.0 **** 0.06
5411 C 28.714898051445516 43.7513264684016 181.3205747483832 C 0.0 **** -0.24
5412 H 27.885627282839437 44.191496110265234 181.874798865408 H 0.0 **** 0.06
5413 H 28.325304678077543 43.180103165336845 180.47814337633557 H 0.0 **** 0.06
5414 H 29.280135244853057 43.089771912303604 181.97813250074162 H 0.0 **** 0.06
5415 H 29.367649620488294 44.543270735251525 180.95341354549797 H 0.0 **** 0.06
5416 C 77.88189374323748 82.41318759664478 143.6427761681271 C 0.0 **** -0.24
5417 H 76.85044127706006 82.06138899373386 143.64506217307695 H 0.0 **** 0.06
5418 H 78.13942422746936 82.77645560068328 142.64762336561586 H 0.0 **** 0.06
5419 H 78.54619983434418 81.59238174941882 143.91366335378137 H 0.0 **** 0.06
5420 H 77.9906468213202 83.22262865163364 144.36426117641088 H 0.0 **** 0.06
5421 C 36.842762734811686 22.42485133218102 111.12199516712397 C 0.0 **** -0.24
5422 H 37.46585669432483 21.656218923534 110.66491441128608 H 0.0 **** 0.06
5423 H 36.694502510370796 22.19190980457347 112.17631192547657 H 0.0 **** 0.06
5424 H 35.87745181105953 22.458431892647724 110.61684385375989 H 0.0 **** 0.06
5425 H 37.33500169835497 23.39323979904168 111.0285913265572 H 0.0 **** 0.06
5426 C 3.7277152488371144 41.34494011090533 109.20393951012181 C 0.0 **** -0.24
5427 H 3.204797926179083 40.408128689179364 109.39680609468292 H 0.0 **** 0.06
5428 H 4.665888058871161 41.35676001018686 109.75985387202758 H 0.0 **** 0.06
5429 H 3.1058866673888588 42.18060094444456 109.52263189421762 H 0.0 **** 0.06
5430 H 3.9357234980340365 41.432441294907164 108.13807658774078 H 0.0 **** 0.06
5431 C 60.03052730498666 197.99738954677565 61.11022614128501 C 0.0 **** -0.24
5432 H 60.554964297945546 197.094783882257 61.424023112648285 H 0.0 **** 0.06
5433 H 58.97729870645496 197.9166709339556 61.38053286289522 H 0.0 **** 0.06
5434 H 60.12034555454922 198.11264129441207 60.02963351725066 H 0.0 **** 0.06
5435 H 60.46921356882217 198.86297978043754 61.60505495819234 H 0.0 **** 0.06
5436 C 65.41198685139598 119.79236573977798 162.76327998707006 C 0.0 **** -0.24
5437 H 64.49713515691556 120.33852918222388 162.99524458391204 H 0.0 **** 0.06
5438 H 65.93269033185688 119.54643388675538 163.6888647191093 H 0.0 **** 0.06
5439 H 66.05452535336049 120.41215738937282 162.13855264719805 H 0.0 **** 0.06
5440 H 65.16251906664489 118.87465576104188 162.23203534458327 H 0.0 **** 0.06
5441 C 21.866820575332298 138.88526223924137 25.87163760829094 C 0.0 **** -0.24
5442 H 22.116199291416677 139.83098029636284 25.39037853411901 H 0.0 **** 0.06
5443 H 20.78295352800623 138.79406664889163 25.95104981269762 H 0.0 **** 0.06
5444 H 22.308186756352768 138.8565344912504 26.867804908703476 H 0.0 **** 0.06
5445 H 22.25803981265885 138.06060617942032 25.276276741201798 H 0.0 **** 0.06
5446 C 23.973029518544507 30.720836314909548 59.05963471441896 C 0.0 **** -0.24
5447 H 22.89736424535711 30.895944537374703 59.03120898673967 H 0.0 **** 0.06
5448 H 24.216987639395683 30.10557072958386 59.92625077617103 H 0.0 **** 0.06
5449 H 24.49458159358079 31.675090171211593 59.13237871010969 H 0.0 **** 0.06
5450 H 24.280341436884314 30.20664188328078 58.14965277627152 H 0.0 **** 0.06
5451 C 126.85015763568728 64.64947180755075 106.61045299260817 C 0.0 **** -0.24
5452 H 127.71190007618623 65.31536377659828 106.66726459990758 H 0.0 **** 0.06
5453 H 126.19799581586514 64.82495872533534 107.46611647110248 H 0.0 **** 0.06
5454 H 127.19097454196353 63.61402700480073 106.61836405211002 H 0.0 **** 0.06
5455 H 126.30111690166214 64.84531134140656 105.68906010898385 H 0.0 **** 0.06
5456 C 159.72452008377167 71.03883082395367 57.0712849525537 C 0.0 **** -0.24
5457 H 160.44060550942402 70.70620604393645 56.32094032161734 H 0.0 **** 0.06
5458 H 158.7608430481912 70.56061633840773 56.891248302344366 H 0.0 **** 0.06
5459 H 159.60961506590996 72.12084552159808 57.0093518706133 H 0.0 **** 0.06
5460 H 160.08487048873553 70.76800001123809 58.064123789812584 H 0.0 **** 0.06
5461 C 22.593476137916696 195.38402534053182 158.51234545453102 C 0.0 **** -0.24
5462 H 23.32116151216178 196.08727729860996 158.10573459581389 H 0.0 **** 0.06
5463 H 22.264795249315057 194.7062921197425 157.72359881148918 H 0.0 **** 0.06
5464 H 21.7370974022013 195.9320379383115 158.90191993924356 H 0.0 **** 0.06
5465 H 23.05449756484532 194.80901141100412 159.31557886568362 H 0.0 **** 0.06
5466 C 121.74533374351319 1.1244350238317153 174.262296756012 C 0.0 **** -0.24
5467 H 122.46234743359278 1.668515093442764 173.64850941359066 H 0.0 **** 0.06
5468 H 121.39902382776754 1.7665082102924856 175.07277264616297 H 0.0 **** 0.06
5469 H 122.2234307229719 0.23788499462114032 174.67930996172782 H 0.0 **** 0.06
5470 H 120.8955662101819 0.8242577435952612 173.6477371894869 H 0.0 **** 0.06
5471 C 121.69737987772851 90.10777836373603 123.39420500317792 C 0.0 **** -0.24
5472 H 121.98025075753958 89.50328318254077 124.25510063594422 H 0.0 **** 0.06
5473 H 121.68992082627113 91.16078466669421 123.67724703189836 H 0.0 **** 0.06
5474 H 120.70276090682853 89.81575123541353 123.05692626720531 H 0.0 **** 0.06
5475 H 122.41474700901824 89.95193401862548 122.58864394681464 H 0.0 **** 0.06
5476 C 182.79494914928702 54.52664993888402 21.359348507455124 C 0.0 **** -0.24
5477 H 183.8780598418731 54.40871041435962 21.330762266596054 H 0.0 **** 0.06
5478 H 182.4272781754308 54.26594418821013 22.352123538831123 H 0.0 **** 0.06
5479 H 182.33904977963198 53.8686922434655 20.618652114981103 H 0.0 **** 0.06
5480 H 182.53557132027962 55.5610341540868 21.134831003885665 H 0.0 **** 0.06
5481 C 38.19295801086301 109.40356961200268 151.37735943156326 C 0.0 **** -0.24
5482 H 38.133954290282986 109.71586001953023 152.41998877329317 H 0.0 **** 0.06
5483 H 39.21160486877133 109.09041624329035 151.14944449319168 H 0.0 **** 0.06
5484 H 37.91482171149221 110.23678731925204 150.73135080026293 H 0.0 **** 0.06
5485 H 37.51053654516656 108.56943776463547 151.2087275074989 H 0.0 **** 0.06
5486 C 180.78467969005874 76.46609532360753 145.32871254177115 C 0.0 **** -0.24
5487 H 180.1611797608993 77.295143517886 144.9932343406903 H 0.0 **** 0.06
5488 H 180.82560714796375 75.70456748976244 144.55014335626822 H 0.0 **** 0.06
5489 H 180.35968932233018 76.03806074927627 146.2363712130829 H 0.0 **** 0.06
5490 H 181.7912566938619 76.82975381725834 145.53547791553277 H 0.0 **** 0.06
5491 C 188.22399710785126 175.3474534485085 188.92714086760898 C 0.0 **** -0.24
5492 H 187.6008543270079 175.89584831709655 189.63385780780794 H 0.0 **** 0.06
5493 H 189.01979921122717 175.99932612504188 188.5648871751755 H 0.0 **** 0.06
5494 H 187.6147549826078 175.01700518991152 188.08695123163733 H 0.0 **** 0.06
5495 H 188.6609419533683 174.48128229103435 189.42361584253314 H 0.0 **** 0.06
5496 C 149.57911992674775 39.12302569984848 0.5827458695781971 C 0.0 **** -0.24
5497 H 150.57224067822744 38.937583685980485 0.17191969701205778 H 0.0 **** 0.06
5498 H 149.65402787514617 39.27341171696409 1.659734972641111 H 0.0 **** 0.06
5499 H 148.93624652506782 38.26642087702885 0.37886928793682273 H 0.0 **** 0.06
5500 H 149.15557538325336 40.01358294669984 0.11936970210563658 H 0.0 **** 0.06
5501 C 81.92875751285487 39.96501827428477 48.40515725674922 C 0.0 **** -0.24
5502 H 82.8434904919531 39.639187013548394 47.90948169804136 H 0.0 **** 0.06
5503 H 81.83012352765815 39.4487908554824 49.360521736673164 H 0.0 **** 0.06
5504 H 81.07126285865468 39.729530559930424 47.77434575628662 H 0.0 **** 0.06
5505 H 81.97150836945701 41.04054008808873 48.57452920382653 H 0.0 **** 0.06
5506 C 68.439006314629 198.13645775440568 190.81371709639825 C 0.0 **** -0.24
5507 H 69.40791427694339 198.37790497116853 191.2520574990704 H 0.0 **** 0.06
5508 H 68.37780962227609 197.06380760916556 190.63487841411182 H 0.0 **** 0.06
5509 H 68.32554343289708 198.67023142752345 189.87027312997992 H 0.0 **** 0.06
5510 H 67.64577334586185 198.4371318434297 191.49922148213045 H 0.0 **** 0.06
5511 C 41.90041359204912 7.754466504579426 99.16802589907033 C 0.0 **** -0.24
5512 H 41.92167912084727 8.137073944954068 98.14693283974961 H 0.0 **** 0.06
5513 H 42.682644213618744 8.236846684803197 99.75342343977056 H 0.0 **** 0.06
5514 H 42.06716189200182 6.67710075581175 99.1546190672916 H 0.0 **** 0.06
5515 H 40.928392523287016 7.9661827529888 99.6148032254599 H 0.0 **** 0.06
5516 C 8.585749420176654 174.0926302382464 45.12553254542594 C 0.0 **** -0.24
5517 H 8.780065216469268 173.3569252536501 45.906081219794146 H 0.0 **** 0.06
5518 H 9.478612623984077 174.213971076411 44.51138646812528 H 0.0 **** 0.06
5519 H 8.326679146456598 175.0472295105571 45.582756221975245 H 0.0 **** 0.06
5520 H 7.760122186965646 173.75088587848956 44.50265767004257 H 0.0 **** 0.06
5521 C 193.56172458298286 149.57463810392875 10.412129427627036 C 0.0 **** -0.24
5522 H 194.3397319949166 148.87236056427926 10.110411948316852 H 0.0 **** 0.06
5523 H 194.02270857303006 150.507922142893 10.736065152111394 H 0.0 **** 0.06
5524 H 192.98699565632273 149.14754119806597 11.233986822656306 H 0.0 **** 0.06
5525 H 192.9011846409502 149.76902065742087 9.567578023466467 H 0.0 **** 0.06
5526 C 18.245249061209563 86.48904603849189 26.78948739343241 C 0.0 **** -0.24
5527 H 18.82320275587992 87.39265729897463 26.98114041634483 H 0.0 **** 0.06
5528 H 18.02635414009245 86.41685138968506 25.72417399975751 H 0.0 **** 0.06
5529 H 17.311499154265846 86.52963792539077 27.35081626644029 H 0.0 **** 0.06
5530 H 18.818962064222717 85.61677641773016 27.102806372529642 H 0.0 **** 0.06
5531 C 111.6008465426215 66.37656630796319 59.64859690800597 C 0.0 **** -0.24
5532 H 111.23530871058199 66.5864262992613 60.65314881369926 H 0.0 **** 0.06
5533 H 112.00942664448374 67.28761294142996 59.21222092508867 H 0.0 **** 0.06
5534 H 110.77877036168078 66.01509512849002 59.03091736387637 H 0.0 **** 0.06
5535 H 112.3801919322938 65.61484590972573 59.697274635391295 H 0.0 **** 0.06
5536 C 166.64950288311718 154.62840592111328 75.87611223347089 C 0.0 **** -0.24
5537 H 166.2999274298885 153.5999195479297 75.7834436021885 H 0.0 **** 0.06
5538 H 166.94546667775128 155.00009710953398 74.89448052961384 H 0.0 **** 0.06
5539 H 167.50370946966564 154.6627674174181 76.55123373791812 H 0.0 **** 0.06
5540 H 165.84641875741224 155.25000431146339 76.27326463641673 H 0.0 **** 0.06
5541 C 139.91046617061068 48.36207028254563 124.32728208676576 C 0.0 **** -0.24
5542 H 138.8792687095965 48.183561929538484 124.02069234291639 H 0.0 **** 0.06
5543 H 140.21298115384423 49.362593466571695 124.01749064920523 H 0.0 **** 0.06
5544 H 140.56072201657616 47.62379098778956 123.85808628693837 H 0.0 **** 0.06
5545 H 139.9868825525321 48.277350189569916 125.41041166504704 H 0.0 **** 0.06
5546 C 89.61158642053317 119.68464465644547 144.60726165349507 C 0.0 **** -0.24
5547 H 90.06288500397335 118.76019467892732 144.96882012656897 H 0.0 **** 0.06
5548 H 90.39751597459903 120.38340377203679 144.32022485813238 H 0.0 **** 0.06
5549 H 89.0038161316804 120.12487492079055 145.3975326603794 H 0.0 **** 0.06
5550 H 88.98345474577337 119.46821991687457 143.74329776098708 H 0.0 **** 0.06
5551 C 117.09749624459792 152.0768805135762 82.68068991874398 C 0.0 **** -0.24
5552 H 117.6642943200145 152.62320548790538 81.92705762272001 H 0.0 **** 0.06
5553 H 117.15412810783045 152.60629825081347 83.63203916255651 H 0.0 **** 0.06
5554 H 117.5163922713312 151.07661421594773 82.79446229364953 H 0.0 **** 0.06
5555 H 116.05629726369543 152.0019020730823 82.36850635425856 H 0.0 **** 0.06
5556 C 148.5842765724044 73.35546789149755 57.94795899543044 C 0.0 **** -0.24
5557 H 149.49244640968703 73.4228508555251 58.547310123311036 H 0.0 **** 0.06
5558 H 147.8574463667552 74.08512885093604 58.30787490878441 H 0.0 **** 0.06
5559 H 148.16557836138816 72.35265792122652 58.03416026959724 H 0.0 **** 0.06
5560 H 148.82076300575727 73.56188542913989 56.90468500240564 H 0.0 **** 0.06
5561 C 144.3418756212752 60.452067934144566 190.14703894144185 C 0.0 **** -0.24
5562 H 144.58500924727406 59.67358569570871 190.8702831114564 H 0.0 **** 0.06
5563 H 143.463386499704 61.00212707655015 190.4862534944581 H 0.0 **** 0.06
5564 H 144.13427482133943 59.99554916484533 189.17908428813456 H 0.0 **** 0.06
5565 H 145.18600931130496 61.13622809885476 190.05248262695343 H 0.0 **** 0.06
5566 C 40.07770679615081 20.176302607277492 144.17628540318208 C 0.0 **** -0.24
5567 H 39.68217354908393 19.228942964072544 143.80911942820805 H 0.0 **** 0.06
5568 H 40.176222898432655 20.87436050077281 143.34530500350922 H 0.0 **** 0.06
5569 H 41.05535854502067 20.008878352160167 144.6288402293444 H 0.0 **** 0.06
5570 H 39.39763816560439 20.59032681384177 144.92070215183185 H 0.0 **** 0.06
5571 C 143.09869540338264 19.563123140317458 28.01645723132455 C 0.0 **** -0.24
5572 H 142.33554782626936 20.28429646333487 28.306597654253267 H 0.0 **** 0.06
5573 H 144.02571208262557 20.087818627274373 27.78620867959569 H 0.0 **** 0.06
5574 H 142.7636667300903 19.013410961749628 27.13642086377689 H 0.0 **** 0.06
5575 H 143.26929945516153 18.86567079322083 28.836489646014684 H 0.0 **** 0.06
5576 C 70.20075982027424 154.90749697228932 95.81369299740885 C 0.0 **** -0.24
5577 H 70.09266390197729 154.3516946304504 96.74422331754224 H 0.0 **** 0.06
5578 H 70.32907746616334 155.9665900387737 96.0354025444361 H 0.0 **** 0.06
5579 H 69.30908140370741 154.76900997381875 95.20279969974678 H 0.0 **** 0.06
5580 H 71.07279956784964 154.5408094372011 95.27129219134795 H 0.0 **** 0.06
5581 C 132.83825491298734 159.19120477713898 198.16509060606526 C 0.0 **** -0.24
5582 H 132.3934794488191 158.2478016134311 197.84952615199276 H 0.0 **** 0.06
5583 H 132.05625062031504 159.94359724259738 198.27066788093947 H 0.0 **** 0.06
5584 H 133.5613737308565 159.51994782414857 197.41821251581354 H 0.0 **** 0.06
5585 H 133.34191585195873 159.05347242837888 199.12195587551508 H 0.0 **** 0.06
5586 C 123.4416585990862 73.70019405030017 170.62171309044334 C 0.0 **** -0.24
5587 H 123.35537237136194 74.5539041606328 171.2949630051525 H 0.0 **** 0.06
5588 H 122.55970334159699 73.06802105655936 170.72242506546857 H 0.0 **** 0.06
5589 H 124.33240810485196 73.12659952224284 170.8766842725786 H 0.0 **** 0.06
5590 H 123.51912711182652 74.05506159903459 169.59383014827688 H 0.0 **** 0.06
5591 C 118.66071834428817 191.51427960097075 148.67828350499246 C 0.0 **** -0.24
5592 H 118.58326842587024 191.52616647592336 147.59106002443565 H 0.0 **** 0.06
5593 H 119.60260128587527 191.0499875900592 148.9695996973051 H 0.0 **** 0.06
5594 H 117.82977326751086 190.9458386913173 149.09469300289126 H 0.0 **** 0.06
5595 H 118.62686526087703 192.53636740055487 149.05472761562098 H 0.0 **** 0.06
5596 C 36.11592331909827 92.5206873698728 60.062432784544285 C 0.0 **** -0.24
5597 H 36.4768304942171 92.77532885194876 61.05886813429851 H 0.0 **** 0.06
5598 H 36.965530965791345 92.34293072898117 59.40305951557781 H 0.0 **** 0.06
5599 H 35.5172625048572 93.34325769379944 59.67225083238918 H 0.0 **** 0.06
5600 H 35.50350396286285 91.62006871308267 60.118067977150474 H 0.0 **** 0.06
5601 C 51.21078080362169 54.5793083057258 187.4682127185754 C 0.0 **** -0.24
5602 H 51.91721898783567 54.89088027022849 186.69947956388773 H 0.0 **** 0.06
5603 H 50.28529321325409 54.24571857232604 186.99784869709322 H 0.0 **** 0.06
5604 H 50.999436364022415 55.41973666188875 188.12930907076804 H 0.0 **** 0.06
5605 H 51.640136548366485 53.76146651551919 188.04698740264064 H 0.0 **** 0.06
5606 C 189.06300911197968 68.5424400512056 10.97261456525952 C 0.0 **** -0.24
5607 H 189.5954632900126 69.47070460015892 11.178966571474128 H 0.0 **** 0.06
5608 H 188.3045014432849 68.72137194494802 10.209253432623228 H 0.0 **** 0.06
5609 H 188.58320722327247 68.18735185786737 11.884981387339856 H 0.0 **** 0.06
5610 H 189.76720623817437 67.79072143007083 10.616943100405635 H 0.0 **** 0.06
5611 C 149.1050658802983 60.82990482062701 30.32891378575414 C 0.0 **** -0.24
5612 H 148.39400966528342 61.39464445499095 29.725893978324436 H 0.0 **** 0.06
5613 H 150.08579344174575 60.85731922861436 29.8530423715265 H 0.0 **** 0.06
5614 H 148.7702017598582 59.79669094003441 30.412924203600753 H 0.0 **** 0.06
5615 H 149.17012479585435 61.27350998793577 31.322568394316477 H 0.0 **** 0.06
5616 C 3.7787108588145486 40.577932066503024 52.322152243117955 C 0.0 **** -0.24
5617 H 4.085620719983837 41.415996181663786 52.94920773812177 H 0.0 **** 0.06
5618 H 2.7299048181420176 40.34914373402978 52.51085430178537 H 0.0 **** 0.06
5619 H 4.389444449954738 39.70599626583231 52.555921613361065 H 0.0 **** 0.06
5620 H 3.91062998675514 40.84335080072526 51.27352938066812 H 0.0 **** 0.06
5621 C 26.78353933836729 82.51161589545828 193.62534937575808 C 0.0 **** -0.24
5622 H 26.950471923718624 81.4963925369889 193.2676753739899 H 0.0 **** 0.06
5623 H 27.74384078181653 82.99605767421588 193.80241711841933 H 0.0 **** 0.06
5624 H 26.21536031373347 82.48045701165486 194.55475208241361 H 0.0 **** 0.06
5625 H 26.22540599748929 83.07329620044541 192.87684081002422 H 0.0 **** 0.06
5626 C 103.24661492151921 83.86015042809461 83.44602311853359 C 0.0 **** -0.24
5627 H 102.48839246608279 84.2992523538446 82.7985682062575 H 0.0 **** 0.06
5628 H 103.82964387847272 83.1317107038602 82.88178867855555 H 0.0 **** 0.06
5629 H 102.76302768217107 83.36417052259483 84.28766556045645 H 0.0 **** 0.06
5630 H 103.90607260258201 84.64439969180683 83.81670266342002 H 0.0 **** 0.06
5631 C 94.52847395026029 108.01546316540654 33.242579086223884 C 0.0 **** -0.24
5632 H 93.59504318941123 107.7786876432134 33.753083783834285 H 0.0 **** 0.06
5633 H 94.98709082558057 107.09529079423311 32.87944678411691 H 0.0 **** 0.06
5634 H 95.20613491318085 108.50987209607496 33.93800851708971 H 0.0 **** 0.06
5635 H 94.32436195179034 108.67752417090426 32.401558169640055 H 0.0 **** 0.06
5636 C 198.07395996493335 30.288140669606094 76.5325357234671 C 0.0 **** -0.24
5637 H 197.48839433064666 29.542363324489003 77.06978121034689 H 0.0 **** 0.06
5638 H 198.40016760631144 31.063467651246654 77.22721577376302 H 0.0 **** 0.06
5639 H 197.4625264569395 30.735363947034074 75.749197307273 H 0.0 **** 0.06
5640 H 198.9461541072119 29.811064320675882 76.0849184422832 H 0.0 **** 0.06
5641 C 172.0017574945295 71.98118925256304 65.80206894389788 C 0.0 **** -0.24
5642 H 171.8366485984172 71.01874709295343 65.3179245223548 H 0.0 **** 0.06
5643 H 171.5668732785099 72.77317696833826 65.19220841615417 H 0.0 **** 0.06
5644 H 173.07233886391109 72.15295012157681 65.91194346074596 H 0.0 **** 0.06
5645 H 171.53102632664744 71.9785109504445 66.78443936545635 H 0.0 **** 0.06
5646 C 11.572578072544076 118.93782245558623 171.88586639768482 C 0.0 **** -0.24
5647 H 11.899503035625429 118.0473669524934 171.34785080989172 H 0.0 **** 0.06
5648 H 11.83827720121414 119.8259260102977 171.31302897072226 H 0.0 **** 0.06
5649 H 12.06074386187862 118.97300772540385 172.85973078150744 H 0.0 **** 0.06
5650 H 10.4916275696948 118.90202244217735 172.02243893495015 H 0.0 **** 0.06
5651 C 53.83834323822677 152.89265231134053 94.53482973192399 C 0.0 **** -0.24
5652 H 54.56804994943498 152.1315587424205 94.25786875152977 H 0.0 **** 0.06
5653 H 53.05507815937828 152.93716420983463 93.77843818059412 H 0.0 **** 0.06
5654 H 54.33211731500164 153.86115253093442 94.60435768652715 H 0.0 **** 0.06
5655 H 53.39836320703532 152.6395226984451 95.49986997569553 H 0.0 **** 0.06
5656 C 94.25179678195985 49.22080864405194 194.17873662458888 C 0.0 **** -0.24
5657 H 94.36971602274758 48.94371306356709 193.13205294081854 H 0.0 **** 0.06
5658 H 93.25047589068316 49.61940785361213 194.3388953119494 H 0.0 **** 0.06
5659 H 94.99048794087645 49.979545089405065 194.43873869923567 H 0.0 **** 0.06
5660 H 94.39876623623934 48.341367205870284 194.80576885699665 H 0.0 **** 0.06
5661 C 16.900994210676913 168.59826483690279 59.813536211844465 C 0.0 **** -0.24
5662 H 16.020401716660103 169.21775317097033 59.63814582966661 H 0.0 **** 0.06
5663 H 16.586816601076833 167.58171402629165 60.0518880075945 H 0.0 **** 0.06
5664 H 17.471982156385707 169.00698555796285 60.64702875146928 H 0.0 **** 0.06
5665 H 17.52138776677566 168.58755057099089 58.918357634987004 H 0.0 **** 0.06
5666 C 55.1804790685207 62.098416073766316 167.70694849570978 C 0.0 **** -0.24
5667 H 55.56718172922973 63.02736454983415 167.2874506159309 H 0.0 **** 0.06
5668 H 56.0123897976199 61.463095958922224 168.01010614812066 H 0.0 **** 0.06
5669 H 54.5834961686341 61.58176223366962 166.9550635836739 H 0.0 **** 0.06
5670 H 54.55886331553421 62.32208109541139 168.57356402872827 H 0.0 **** 0.06
5671 C 175.26507013809226 183.59665472133514 74.03152683184491 C 0.0 **** -0.24
5672 H 175.82614929992064 184.45953786864962 73.67125671971344 H 0.0 **** 0.06
5673 H 174.4262077623714 183.9384280133091 74.63932009681467 H 0.0 **** 0.06
5674 H 175.9170646958017 182.96482293194927 74.63429159428955 H 0.0 **** 0.06
5675 H 174.89014309011557 183.02748048376657 73.18164210383964 H 0.0 **** 0.06
5676 C 157.73915332574245 159.83876351841008 146.45871748533338 C 0.0 **** -0.24
5677 H 158.5315080161932 160.58366438414416 146.5341126659145 H 0.0 **** 0.06
5678 H 157.70966412875208 159.44161745769497 145.44379577006367 H 0.0 **** 0.06
5679 H 156.781801004885 160.3032414783479 146.695205207438 H 0.0 **** 0.06
5680 H 157.93439675593652 159.0287952527188 147.16120882647036 H 0.0 **** 0.06
5681 C 54.25092195506079 131.64822883156637 80.17792311534686 C 0.0 **** -0.24
5682 H 53.27104038603568 131.7361270248037 79.70698709566182 H 0.0 **** 0.06
5683 H 54.75674509962809 132.6133610181746 80.143842333404 H 0.0 **** 0.06
5684 H 54.84505830373374 130.9062636361611 79.64366348883811 H 0.0 **** 0.06
5685 H 54.12850437711472 131.33709625249165 81.21507311583349 H 0.0 **** 0.06
5686 C 16.08401039656107 163.08352792437324 72.22955499750644 C 0.0 **** -0.24
5687 H 15.315217384582297 163.06050208585765 71.45738222421859 H 0.0 **** 0.06
5688 H 16.43808139167095 162.07046500117355 72.42043958656456 H 0.0 **** 0.06
5689 H 15.667336926404232 163.50246350140168 73.14575524500148 H 0.0 **** 0.06
5690 H 16.917235835253848 163.70222309162307 71.89313504180275 H 0.0 **** 0.06
5691 C 186.55176788409702 148.81789383816866 90.34342564416181 C 0.0 **** -0.24
5692 H 186.9447564892182 149.8345736862215 90.3170108812273 H 0.0 **** 0.06
5693 H 186.62372836094136 148.37580661611824 89.34973944687314 H 0.0 **** 0.06
5694 H 185.5082985264073 148.84056295010797 90.65723527934216 H 0.0 **** 0.06
5695 H 187.13072485689622 148.22292785321264 91.04898284142709 H 0.0 **** 0.06
5696 C 197.39782126022385 73.57511351099902 156.18137264001814 C 0.0 **** -0.24
5697 H 198.32693484939674 73.21244731291733 155.74175820876454 H 0.0 **** 0.06
5698 H 196.84322345286307 74.14611073519933 155.4375567367785 H 0.0 **** 0.06
5699 H 197.62491960018372 74.2130261142998 157.03523534897653 H 0.0 **** 0.06
5700 H 196.79750904863067 72.72709542901544 156.5105447202735 H 0.0 **** 0.06
5701 C 94.28294813175566 78.13086816455207 66.1827874850117 C 0.0 **** -0.24
5702 H 94.31297862474284 79.15558381244034 65.81222885785631 H 0.0 **** 0.06
5703 H 95.19198581590504 77.92272823427584 66.74903300436475 H 0.0 **** 0.06
5704 H 94.21320588730012 77.44262029113374 65.34120888598594 H 0.0 **** 0.06
5705 H 93.41460589975523 78.00448389739773 66.82979944670521 H 0.0 **** 0.06
5706 C 187.9695924636738 41.009879791634845 69.15818248130262 C 0.0 **** -0.24
5707 H 188.76949524986384 41.59019039399672 68.69929055505472 H 0.0 **** 0.06
5708 H 188.28009343142756 40.68688158207681 70.15292618421748 H 0.0 **** 0.06
5709 H 187.7548904740466 40.13610709900493 68.54319954444412 H 0.0 **** 0.06
5710 H 187.07377699758626 41.62589364506711 69.2397194443177 H 0.0 **** 0.06
5711 C 137.46637624112566 3.3506939703082423 22.029951224210606 C 0.0 **** -0.24
5712 H 136.59581633662953 3.6618964970990078 21.452443540067677 H 0.0 **** 0.06
5713 H 138.37451076596716 3.621339444381988 21.490754221984446 H 0.0 **** 0.06
5714 H 137.43815952617726 2.269866493852305 22.174942626156763 H 0.0 **** 0.06
5715 H 137.45705298766993 3.8481885374309854 22.99905797057825 H 0.0 **** 0.06
5716 C 42.349157105329155 43.63505260120962 130.3073493234367 C 0.0 **** -0.24
5717 H 43.43026712743678 43.66796790774592 130.43895238404912 H 0.0 **** 0.06
5718 H 42.051362642352274 42.63098311894964 130.00364282701136 H 0.0 **** 0.06
5719 H 42.055417962122604 44.349518187783815 129.53813418389967 H 0.0 **** 0.06
5720 H 41.86128254253151 43.890651552571114 131.24771056211125 H 0.0 **** 0.06
5721 C 119.12471324665796 133.47495342734337 75.48515541492135 C 0.0 **** -0.24
5722 H 119.04073530310549 133.3984284206932 76.56935480481852 H 0.0 **** 0.06
5723 H 120.12924364897677 133.1838346379371 75.17698789771467 H 0.0 **** 0.06
5724 H 118.93427991249922 134.50313397212906 75.17818215031676 H 0.0 **** 0.06
5725 H 118.39490650989842 132.81473671595532 75.01699124048245 H 0.0 **** 0.06
5726 C 184.1887491706302 68.67108562970056 141.09733936624474 C 0.0 **** -0.24
5727 H 185.0332512678418 68.01911423470581 140.87194812690126 H 0.0 **** 0.06
5728 H 183.9449733217021 68.59556897317059 142.1573762843049 H 0.0 **** 0.06
5729 H 183.32691875780637 68.3655027955507 140.5033198610373 H 0.0 **** 0.06
5730 H 184.45093742533373 69.70028273402376 140.85580824298827 H 0.0 **** 0.06
5731 C 107.06298972354097 174.8775264241521 183.43736119685076 C 0.0 **** -0.24
5732 H 107.99177250998736 175.38142014742357 183.17110883686766 H 0.0 **** 0.06
5733 H 106.27431671804433 175.1838245552345 182.7501385054655 H 0.0 **** 0.06
5734 H 106.78256766398638 175.14655908045614 184.45594088922462 H 0.0 **** 0.06
5735 H 107.20341998565254 173.79919021570535 183.37270042597333 H 0.0 **** 0.06
5736 C 15.869237384352914 51.66042165514648 98.72163153817843 C 0.0 **** -0.24
5737 H 15.179681811133264 50.91029233158031 99.10744725665776 H 0.0 **** 0.06
5738 H 16.29040487037014 51.31548200927148 97.7766816466187 H 0.0 **** 0.06
5739 H 16.672293848759807 51.81913428006743 99.44124066555611 H 0.0 **** 0.06
5740 H 15.334569007148616 52.59677799966653 98.56115658388148 H 0.0 **** 0.06
5741 C 148.06252334607674 46.48771912618605 189.32602388478938 C 0.0 **** -0.24
5742 H 147.4942177764607 46.967012373259195 188.5284735980786 H 0.0 **** 0.06
5743 H 148.7124131298535 47.22279152212525 189.80119494038763 H 0.0 **** 0.06
5744 H 148.66707701322096 45.6836242449271 188.90756008998116 H 0.0 **** 0.06
5745 H 147.37380157814223 46.07834040215647 190.06527693751798 H 0.0 **** 0.06
5746 C 55.07310786094956 71.25079658391269 113.55644723618445 C 0.0 **** -0.24
5747 H 54.25426820529469 70.66265056544069 113.97188505473514 H 0.0 **** 0.06
5748 H 55.45098881226957 70.76209435027647 112.65735500697457 H 0.0 **** 0.06
5749 H 55.87428052058763 71.32737765889988 114.29209824618562 H 0.0 **** 0.06
5750 H 54.71312660594299 72.2479327116921 113.30551957013176 H 0.0 **** 0.06
5751 C 80.32005812561783 38.20358746854541 73.24345577474699 C 0.0 **** -0.24
5752 H 80.34021359082612 39.20570344080801 72.81426114072572 H 0.0 **** 0.06
5753 H 80.19122428998523 37.47043207260191 72.44637941731854 H 0.0 **** 0.06
5754 H 79.49103956402041 38.12554461264921 73.94674818684977 H 0.0 **** 0.06
5755 H 81.25829338249804 38.01323543863799 73.7643390477508 H 0.0 **** 0.06
5756 C 124.53962634801118 81.98004912672826 196.08419548855073 C 0.0 **** -0.24
5757 H 124.5732643608682 81.76669089798929 197.1525036973816 H 0.0 **** 0.06
5758 H 124.8712535650271 83.00372894415997 195.90794361982032 H 0.0 **** 0.06
5759 H 123.51907677036422 81.86148109518541 195.7218892139248 H 0.0 **** 0.06
5760 H 125.19622322901142 81.28961736971482 195.5551735627583 H 0.0 **** 0.06
5761 C 3.608858720199919 124.4725234639651 24.99226760576414 C 0.0 **** -0.24
5762 H 2.7667256187083353 124.96609109998406 24.50670862852411 H 0.0 **** 0.06
5763 H 4.3781980420457955 125.21003853948218 25.22231589902367 H 0.0 **** 0.06
5764 H 4.018644132776728 123.71505355706154 24.324707180606254 H 0.0 **** 0.06
5765 H 3.269997492857783 123.99962377942137 25.914340624445515 H 0.0 **** 0.06
5766 C 55.21003885115135 186.50612021207687 24.369798040212004 C 0.0 **** -0.24
5767 H 54.791159255286686 186.22403170966464 25.335487240850583 H 0.0 **** 0.06
5768 H 56.24697189593445 186.8160974977705 24.500517709129554 H 0.0 **** 0.06
5769 H 54.633890679091934 187.33191494117204 23.951046256826032 H 0.0 **** 0.06
5770 H 55.168218021292404 185.65379415447197 23.692528547231774 H 0.0 **** 0.06
5771 C 108.30065997684147 183.95476179504138 125.55194911109092 C 0.0 **** -0.24
5772 H 108.67380054257993 183.48854411582158 126.46417544819928 H 0.0 **** 0.06
5773 H 107.21056538253421 183.95460645567584 125.56362990842584 H 0.0 **** 0.06
5774 H 108.65474631457244 183.39459976574037 124.68719884435154 H 0.0 **** 0.06
5775 H 108.66326617582149 184.98151265834477 125.49373302355812 H 0.0 **** 0.06
5776 C 180.61644849220636 73.08824456020272 43.37030755142739 C 0.0 **** -0.24
5777 H 180.29343209770585 72.0798718677159 43.63001626345995 H 0.0 **** 0.06
5778 H 181.6668330696947 73.2123239777917 43.6343155557697 H 0.0 **** 0.06
5779 H 180.01500188851665 73.81439160421735 43.91797182298026 H 0.0 **** 0.06
5780 H 180.4899316414593 73.24562821678023 42.299179849794825 H 0.0 **** 0.06
5781 C 6.297081085741162 92.38440413878749 189.4412797406895 C 0.0 **** -0.24
5782 H 5.22377474063461 92.41927189071751 189.62680710093105 H 0.0 **** 0.06
5783 H 6.482093563269643 92.44958569626996 188.36897314518674 H 0.0 **** 0.06
5784 H 6.7003174895584365 91.44671864081255 189.8231514242759 H 0.0 **** 0.06
5785 H 6.780151682901661 93.22076169776864 189.94554107474906 H 0.0 **** 0.06
5786 C 46.03324051981684 43.18446188462664 70.19609636706984 C 0.0 **** -0.24
5787 H 46.56237178840678 43.90095164543351 70.82363854488611 H 0.0 **** 0.06
5788 H 45.968638325202335 42.226723802810625 70.71262420594377 H 0.0 **** 0.06
5789 H 46.57293410963422 43.05578192422223 69.25784321349329 H 0.0 **** 0.06
5790 H 45.0286819699042 43.55460650379865 69.98936277056778 H 0.0 **** 0.06
5791 C 57.538957345190965 125.19314364626268 189.5219156393539 C 0.0 **** -0.24
5792 H 58.31794242129797 125.18264858598923 190.2840434370319 H 0.0 **** 0.06
5793 H 56.83478704150792 125.99701798224805 189.73389887927516 H 0.0 **** 0.06
5794 H 57.0128997933507 124.23762432714011 189.5276603484248 H 0.0 **** 0.06
5795 H 57.991231177890086 125.35274325151136 188.5432777997506 H 0.0 **** 0.06
5796 C 78.76240566270468 174.4892591212881 147.11001453206032 C 0.0 **** -0.24
5797 H 78.36523235979985 173.48154568353385 146.98674781230577 H 0.0 **** 0.06
5798 H 78.51306257937574 175.0883908947148 146.23383199236812 H 0.0 **** 0.06
5799 H 79.84526049161207 174.44020663893485 147.22205891412807 H 0.0 **** 0.06
5800 H 78.32503114573632 174.94505799585397 147.99866779079966 H 0.0 **** 0.06
5801 C 7.1578794290929295 65.74025257289404 95.75227277822901 C 0.0 **** -0.24
5802 H 8.178070608411815 65.47037432504897 95.48066210821821 H 0.0 **** 0.06
5803 H 6.457970172057799 65.09649626103483 95.21829566839776 H 0.0 **** 0.06
5804 H 6.973078814733242 66.7801013929222 95.4844373312473 H 0.0 **** 0.06
5805 H 7.022924645080025 65.61127773876446 96.82674586189299 H 0.0 **** 0.06
5806 C 139.28900945248634 67.26642884673367 169.3572524720076 C 0.0 **** -0.24
5807 H 139.43167086651675 68.2049669246893 169.89433692840717 H 0.0 **** 0.06
5808 H 140.25199856263632 66.90657489655683 168.99479310442445 H 0.0 **** 0.06
5809 H 138.62032247998783 67.43135210165906 168.51193019463142 H 0.0 **** 0.06
5810 H 138.851893711253 66.52740121022987 170.0278929416757 H 0.0 **** 0.06
5811 C 24.433387260493646 39.896356551006036 63.317976548249874 C 0.0 **** -0.24
5812 H 24.619075250275614 40.96675828041502 63.40934284924967 H 0.0 **** 0.06
5813 H 24.89776102898078 39.52329154928273 62.40514787351756 H 0.0 **** 0.06
5814 H 23.358770590426815 39.71725238889633 63.27904840692747 H 0.0 **** 0.06
5815 H 24.85720269072533 39.380563645298096 64.17959237945816 H 0.0 **** 0.06
5816 C 6.697529819708848 151.85238671638018 112.44850721792221 C 0.0 **** -0.24
5817 H 5.830002390041464 151.5855176612385 113.05277021280767 H 0.0 **** 0.06
5818 H 7.249998585873016 150.94854453135977 112.1889724808027 H 0.0 **** 0.06
5819 H 7.342960039760854 152.52244145235187 113.0162264785746 H 0.0 **** 0.06
5820 H 6.366634552949584 152.35105586277575 111.53739246591721 H 0.0 **** 0.06
5821 C 100.20724427217363 106.69390483406627 88.74648610852992 C 0.0 **** -0.24
5822 H 99.8259138366451 106.65788536442736 89.76692590442096 H 0.0 **** 0.06
5823 H 99.41644533943264 106.40776017223615 88.05273617369829 H 0.0 **** 0.06
5824 H 101.0445742392464 106.00331809659926 88.64812881068309 H 0.0 **** 0.06
5825 H 100.54226405966668 107.70629691133195 88.52010873965168 H 0.0 **** 0.06
5826 C 55.78188984922369 115.21444257837925 103.98181672917028 C 0.0 **** -0.24
5827 H 56.618222842963746 115.05067299780819 104.66080296832524 H 0.0 **** 0.06
5828 H 55.95153450296846 116.12855058703764 103.41037820833557 H 0.0 **** 0.06
5829 H 54.860799939223 115.31093649210874 104.55686976251573 H 0.0 **** 0.06
5830 H 55.697139892170014 114.3693366022178 103.29918871898286 H 0.0 **** 0.06
5831 C 149.43701034315364 57.57211187301084 53.86125892806328 C 0.0 **** -0.24
5832 H 149.89155107239753 57.61508892711801 52.8713046925416 H 0.0 **** 0.06
5833 H 148.87449744838568 56.64276667815864 53.96197874109856 H 0.0 **** 0.06
5834 H 148.7637633580471 58.41957827011758 53.989219388251854 H 0.0 **** 0.06
5835 H 150.21648838039158 57.60926361349827 54.62082813006211 H 0.0 **** 0.06
5836 C 183.423386700665 167.4030889084972 80.45423814176701 C 0.0 **** -0.24
5837 H 183.83594645891412 166.7849800292455 79.65693547751036 H 0.0 **** 0.06
5838 H 183.91884651197716 167.1604698094905 81.39569036368707 H 0.0 **** 0.06
5839 H 182.35421974587462 167.2114088595896 80.54673933498057 H 0.0 **** 0.06
5840 H 183.58517856960628 168.4548964593413 80.21907874389399 H 0.0 **** 0.06
5841 C 170.0461828489614 1.8198014213014346 139.10842642545566 C 0.0 **** -0.24
5842 H 170.2615156679936 2.078502237704072 138.07210006329285 H 0.0 **** 0.06
5843 H 170.97675896408475 1.5829047119909774 139.62515628429853 H 0.0 **** 0.06
5844 H 169.38518846206875 0.9532589708025796 139.13687454453128 H 0.0 **** 0.06
5845 H 169.56079210605844 2.662297245692514 139.6015098912815 H 0.0 **** 0.06
5846 C 115.52088207406567 100.69075023468659 12.846036068313367 C 0.0 **** -0.24
5847 H 116.47102554171116 100.29893998352631 12.480075898382438 H 0.0 **** 0.06
5848 H 115.59596565709967 101.77142435650657 12.96497122007122 H 0.0 **** 0.06
5849 H 115.28663408485437 100.23401524886415 13.807503545772363 H 0.0 **** 0.06
5850 H 114.73253175735817 100.45621524391208 12.131045305990426 H 0.0 **** 0.06
5851 C 19.73654008469896 9.301070598995992 178.46102320118084 C 0.0 **** -0.24
5852 H 18.679804969790553 9.535018433339523 178.3324580940828 H 0.0 **** 0.06
5853 H 20.004562055685994 9.396645706468618 179.51415441164912 H 0.0 **** 0.06
5854 H 20.336169304528198 9.992713732889484 177.86964747743224 H 0.0 **** 0.06
5855 H 19.925181249459115 8.2800651116085 178.12916632026503 H 0.0 **** 0.06
5856 C 153.36030298905868 196.4241639156153 25.488692166795346 C 0.0 **** -0.24
5857 H 152.93059287082485 196.86647210649423 24.589182639853618 H 0.0 **** 0.06
5858 H 152.5615488144511 196.1693418595459 26.184924284362353 H 0.0 **** 0.06
5859 H 154.03789774414068 197.13776531567356 25.956513770567767 H 0.0 **** 0.06
5860 H 153.91092995258657 195.52148343775735 25.220922453619238 H 0.0 **** 0.06
5861 C 118.7625101549005 167.05092680466765 131.390314461974 C 0.0 **** -0.24
5862 H 119.56407777431559 167.72759358965845 131.09489935345292 H 0.0 **** 0.06
5863 H 118.04712570669335 167.5860631285274 132.01465802541344 H 0.0 **** 0.06
5864 H 119.18097501433704 166.21512128107304 131.9519228591538 H 0.0 **** 0.06
5865 H 118.25865845811188 166.67432503263353 130.49974875950136 H 0.0 **** 0.06
5866 C 100.80024884537363 75.93430345557903 68.75598693432555 C 0.0 **** -0.24
5867 H 99.93174801920952 75.35425389734826 68.4444351712271 H 0.0 **** 0.06
5868 H 100.58309859640246 76.43638221527215 69.69893835253015 H 0.0 **** 0.06
5869 H 101.03415600259041 76.67687508781006 67.99297939862103 H 0.0 **** 0.06
5870 H 101.65319807337573 75.2675733483569 68.88771122601466 H 0.0 **** 0.06
5871 C 164.1270528053244 17.318421240390734 1.2267760217810775 C 0.0 **** -0.24
5872 H 164.29349612473197 16.84795103140192 2.1956553120386957 H 0.0 **** 0.06
5873 H 163.52605503975963 16.658550446285858 0.6011923737975522 H 0.0 **** 0.06
5874 H 165.08668334230754 17.503811753723653 0.7433969883352987 H 0.0 **** 0.06
5875 H 163.6029325786351 18.264163543247946 1.3684276738495385 H 0.0 **** 0.06
5876 C 119.98905757012827 48.038595826322194 197.08970508898926 C 0.0 **** -0.24
5877 H 119.22852575938418 48.6095593798247 197.62261659594708 H 0.0 **** 0.06
5878 H 119.57029484293335 47.65685322163287 196.1582862488127 H 0.0 **** 0.06
5879 H 120.31896235980889 47.20476358561126 197.70947465031335 H 0.0 **** 0.06
5880 H 120.8386381499999 48.68452620782659 196.8679699664579 H 0.0 **** 0.06
5881 C 86.56911036263455 75.97750109492674 188.3272133814681 C 0.0 **** -0.24
5882 H 86.89735892060844 75.05208228663098 188.80060919786786 H 0.0 **** 0.06
5883 H 85.63115721090313 75.80212436072989 187.79836688789766 H 0.0 **** 0.06
5884 H 87.32792121690659 76.31253433096524 187.62001856962684 H 0.0 **** 0.06
5885 H 86.41967296521585 76.74273677667848 189.0890759040758 H 0.0 **** 0.06
5886 C 187.93895511066495 15.24597479036089 3.6609227781812024 C 0.0 **** -0.24
5887 H 188.0201581434035 14.204091685300206 3.350324394976603 H 0.0 **** 0.06
5888 H 187.23749736149114 15.766005558426741 3.0079405999256323 H 0.0 **** 0.06
5889 H 188.91743836942362 15.721647361269163 3.5959551254922815 H 0.0 **** 0.06
5890 H 187.58069381902487 15.291238192743648 4.689071960174182 H 0.0 **** 0.06
5891 C 10.816488380535965 109.42337391777855 89.54624868955696 C 0.0 **** -0.24
5892 H 10.431591330247926 110.27567379014383 88.98624969685912 H 0.0 **** 0.06
5893 H 10.180797871654633 109.24139579807795 90.41318423398548 H 0.0 **** 0.06
5894 H 11.832327228550135 109.63563667935489 89.8779166155843 H 0.0 **** 0.06
5895 H 10.8197505285749 108.54059737608983 88.90632007357814 H 0.0 **** 0.06
5896 C 111.05843570255036 31.501611577145866 192.82107759161062 C 0.0 **** -0.24
5897 H 111.60918814341542 30.59595202060092 192.56569510740368 H 0.0 **** 0.06
5898 H 110.47555160143887 31.329060812520765 193.726092536766 H 0.0 **** 0.06
5899 H 110.38857539345952 31.76139542063254 192.00096892934337 H 0.0 **** 0.06
5900 H 111.75950549120464 32.31842436728522 192.98995826010315 H 0.0 **** 0.06
5901 C 154.3154831751235 66.2362665981438 99.56844901315736 C 0.0 **** -0.24
5902 H 154.12735583353964 65.30020113481328 99.04221214309479 H 0.0 **** 0.06
5903 H 153.45764068253584 66.89888838840636 99.44956114670222 H 0.0 **** 0.06
5904 H 155.20394832454264 66.71301694706904 99.15436633311725 H 0.0 **** 0.06
5905 H 154.4738373606628 66.03185201443642 100.62743074887317 H 0.0 **** 0.06
5906 C 62.64439937114469 0.6562181699508471 57.758359436771116 C 0.0 **** -0.24
5907 H 62.909224311210664 1.4225718885216523 58.487027686153056 H 0.0 **** 0.06
5908 H 62.08375396280371 -0.1370716725634722 58.25280522181174 H 0.0 **** 0.06
5909 H 63.55229657040206 0.2418322904480732 57.31985777821609 H 0.0 **** 0.06
5910 H 62.03107702877551 1.099390760512449 56.972735176867644 H 0.0 **** 0.06
5911 C 2.4100671366400093 117.5586833370538 34.57661480366565 C 0.0 **** -0.24
5912 H 2.6920195711294923 118.38526879210104 33.92539904459272 H 0.0 **** 0.06
5913 H 2.807998974701377 117.73211431042563 35.576960570918686 H 0.0 **** 0.06
5914 H 2.815591246119652 116.62902234703327 34.179595554024715 H 0.0 **** 0.06
5915 H 1.3229196826610519 117.48968344104031 34.62487585379158 H 0.0 **** 0.06
5916 C 69.87534121075359 111.42142294475806 13.218586435619883 C 0.0 **** -0.24
5917 H 68.98008787340709 110.88988683011979 12.893448713738046 H 0.0 **** 0.06
5918 H 70.28887074772682 110.93134527658202 14.099301972165705 H 0.0 **** 0.06
5919 H 69.61617777636665 112.45151878340499 13.463142276138605 H 0.0 **** 0.06
5920 H 70.61352901672086 111.41305970643657 12.415864485781057 H 0.0 **** 0.06
5921 C 95.3926708189247 87.91890758296483 53.97848039898109 C 0.0 **** -0.24
5922 H 94.7863110765069 88.40148855666868 53.21214682741605 H 0.0 **** 0.06
5923 H 95.23407344661388 86.84036490782907 53.94192510901159 H 0.0 **** 0.06
5924 H 95.1052712666469 88.29479376987939 54.96072057671917 H 0.0 **** 0.06
5925 H 96.44563663035933 88.13759838236373 53.7999726300236 H 0.0 **** 0.06
5926 C 175.00785363657968 40.124065088328905 154.74444532007232 C 0.0 **** -0.24
5927 H 174.13832413746346 39.46959906578829 154.8062786494155 H 0.0 **** 0.06
5928 H 175.8985299150123 39.52688657345672 154.54695788100207 H 0.0 **** 0.06
5929 H 175.12784613613258 40.656722027255455 155.68732444650192 H 0.0 **** 0.06
5930 H 174.8643128455296 40.84261143142743 153.93741565594485 H 0.0 **** 0.06
5931 C 76.11046247145168 188.166662621214 171.68561679560017 C 0.0 **** -0.24
5932 H 76.59326240205418 187.50904521105906 170.96343798843878 H 0.0 **** 0.06
5933 H 76.87006534890028 188.71908289428956 172.239685397486 H 0.0 **** 0.06
5934 H 75.51695447683716 187.57051054111952 172.3791415978805 H 0.0 **** 0.06
5935 H 75.46180068269841 188.8676784576761 171.16111575122918 H 0.0 **** 0.06
5936 C 56.79634113644866 125.91709050515357 25.97602125713877 C 0.0 **** -0.24
5937 H 55.8528287115339 126.00581541175964 26.514150301128893 H 0.0 **** 0.06
5938 H 56.92716736453923 124.8876512143255 25.6403443917589 H 0.0 **** 0.06
5939 H 57.618274975218156 126.19038368635805 26.637950476075446 H 0.0 **** 0.06
5940 H 56.78714930033982 126.58271057452578 25.112963835189817 H 0.0 **** 0.06
5941 C 74.15168287347568 164.3953028376821 103.55151913547365 C 0.0 **** -0.24
5942 H 73.63315869091409 163.4436012695245 103.44329510403406 H 0.0 **** 0.06
5943 H 75.20124760762505 164.26942233696968 103.2868785547472 H 0.0 **** 0.06
5944 H 74.07461485000887 164.73510141553498 104.58406555900496 H 0.0 **** 0.06
5945 H 73.69661408209038 165.13440028465942 102.89080204006217 H 0.0 **** 0.06
5946 C 78.93751854576414 108.45566343649142 97.12500587117432 C 0.0 **** -0.24
5947 H 77.89268352380455 108.16922025119231 97.00936963468595 H 0.0 **** 0.06
5948 H 79.0954372107754 109.4396055165941 96.68305183838822 H 0.0 **** 0.06
5949 H 79.57216315306712 107.72435001020943 96.62195753116552 H 0.0 **** 0.06
5950 H 79.19054749573675 108.48804318616129 98.18503775673335 H 0.0 **** 0.06
5951 C 177.89858319913995 142.2256030901446 61.841625478084495 C 0.0 **** -0.24
5952 H 177.06376269866684 141.54792469781287 62.02237510303431 H 0.0 **** 0.06
5953 H 178.5479404421406 141.8053913043291 61.073865815420135 H 0.0 **** 0.06
5954 H 178.4640590164702 142.35987472049342 62.76316109228085 H 0.0 **** 0.06
5955 H 177.51584211625183 143.18998169188933 61.50611112730006 H 0.0 **** 0.06
5956 C 153.2843000848644 31.981366191931897 105.53795250317614 C 0.0 **** -0.24
5957 H 153.37628301458741 31.45137077956757 104.58979445126033 H 0.0 **** 0.06
5958 H 153.60735965896745 31.33088205713962 106.35067052454355 H 0.0 **** 0.06
5959 H 152.24457579328794 32.26941726053305 105.69424283791312 H 0.0 **** 0.06
5960 H 153.90860871281035 32.87461763211003 105.51601429772316 H 0.0 **** 0.06
5961 C 185.92662791340837 164.1227402709042 71.94722435559225 C 0.0 **** -0.24
5962 H 185.98695489930486 165.0635672391175 71.39942241160213 H 0.0 **** 0.06
5963 H 184.97061484898217 163.64227803925291 71.73935241167709 H 0.0 **** 0.06
5964 H 186.01059148037854 164.317708463758 73.01571121830847 H 0.0 **** 0.06
5965 H 186.7384068711728 163.46726959078842 71.63218024953164 H 0.0 **** 0.06
5966 C 22.579516008202802 158.1274485633005 186.92794327120572 C 0.0 **** -0.24
5967 H 22.865590453828418 157.0927016630701 187.11741346313943 H 0.0 **** 0.06
5968 H 22.839958075891445 158.7396463103246 187.79161134383895 H 0.0 **** 0.06
5969 H 21.504960368526156 158.18148306490787 186.75340063692374 H 0.0 **** 0.06
5970 H 23.10980374393762 158.49522057718355 186.04872124263426 H 0.0 **** 0.06
5971 C 28.908225157554583 15.726456869041229 42.60423426927801 C 0.0 **** -0.24
5972 H 29.9080904514457 16.14891606618329 42.51458348626275 H 0.0 **** 0.06
5973 H 28.416740905565746 16.139713380551726 43.48588329319611 H 0.0 **** 0.06
5974 H 28.978882595577247 14.643527726475327 42.701077748399214 H 0.0 **** 0.06
5975 H 28.327805696640795 15.973970179186253 41.71544740348803 H 0.0 **** 0.06
5976 C 67.03760266462228 141.52590166328525 125.59291086733433 C 0.0 **** -0.24
5977 H 67.25798049133016 141.73242425579315 126.64001053046547 H 0.0 **** 0.06
5978 H 66.5781969720478 140.54066831716585 125.50630041618757 H 0.0 **** 0.06
5979 H 67.96090695983395 141.54913066714883 125.0152593771609 H 0.0 **** 0.06
5980 H 66.35132394172052 142.28150037003832 125.21106170490694 H 0.0 **** 0.06
5981 C 23.69228183078397 142.3158380656626 123.24924099630928 C 0.0 **** -0.24
5982 H 24.61005935531722 141.8077479365525 122.95444190737729 H 0.0 **** 0.06
5983 H 23.197518642618064 141.74468554071646 124.03573250614787 H 0.0 **** 0.06
5984 H 23.03002159386162 142.39894945124314 122.38837310527296 H 0.0 **** 0.06
5985 H 23.931752146005863 143.3130372869153 123.62036818952552 H 0.0 **** 0.06
5986 C 109.61790695187108 180.88790357639448 74.30145429194653 C 0.0 **** -0.24
5987 H 110.33671130513659 181.57304703694246 74.74951499728678 H 0.0 **** 0.06
5988 H 110.09789743259307 180.33950878831038 73.48954048781019 H 0.0 **** 0.06
5989 H 108.77199343775291 181.45271802225056 73.90870797872026 H 0.0 **** 0.06
5990 H 109.26661861355055 180.18455522882275 75.05624385290992 H 0.0 **** 0.06
5991 C 117.82808690722862 153.63721527896436 160.969631733737 C 0.0 **** -0.24
5992 H 117.22684205569703 152.73762686945588 161.10584124286825 H 0.0 **** 0.06
5993 H 117.22674768641974 154.4045794588343 160.48247977366455 H 0.0 **** 0.06
5994 H 118.69318912567405 153.4047877184278 160.34893031254566 H 0.0 **** 0.06
5995 H 118.16366672338387 153.99978727443767 161.94103711190957 H 0.0 **** 0.06
5996 C 96.39374663258067 7.935786373148744 138.86372190158642 C 0.0 **** -0.24
5997 H 95.70480930496524 7.623505284350074 139.6495066018454 H 0.0 **** 0.06
5998 H 95.86628645928758 7.965496281887624 137.91039626705629 H 0.0 **** 0.06
5999 H 97.21895763578436 7.226433313797543 138.80098658883654 H 0.0 **** 0.06
6000 H 96.78274694739301 8.926919768076857 139.09589429309432 H 0.0 **** 0.06
6001 C 195.56537669145519 84.59233972731602 14.83552485543494 C 0.0 **** -0.24
6002 H 195.6785045862095 85.03965243250065 15.823462162622889 H 0.0 **** 0.06
6003 H 196.02729458571673 83.60438015508123 14.828932843957858 H 0.0 **** 0.06
6004 H 196.0500458498559 85.22589401524908 14.09264367052915 H 0.0 **** 0.06
6005 H 194.50533271409236 84.49966114487279 14.598416995158502 H 0.0 **** 0.06
6006 C 194.95942093579967 144.91051426755544 160.50709198519246 C 0.0 **** -0.24
6007 H 195.77659024984888 144.19683218192603 160.40176450866076 H 0.0 **** 0.06
6008 H 194.0117445218504 144.3730007071839 160.54740675604486 H 0.0 **** 0.06
6009 H 194.95703443727507 145.58847884754195 159.6536319604667 H 0.0 **** 0.06
6010 H 195.09163179629797 145.48215723242313 161.42567365833827 H 0.0 **** 0.06
6011 C 122.14776337336241 49.75477047050836 126.6323960481601 C 0.0 **** -0.24
6012 H 121.75227301904081 48.827496665808496 126.21753901426803 H 0.0 **** 0.06
6013 H 123.23280239279072 49.7670506706049 126.52538566157881 H 0.0 **** 0.06
6014 H 121.88668131679603 49.82036640163466 127.68832028864159 H 0.0 **** 0.06
6015 H 121.72031182496161 50.60298529434317 126.09909459858238 H 0.0 **** 0.06
6016 C 0.8338975196389384 174.7200417126871 58.46493897711764 C 0.0 **** -0.24
6017 H 0.8412294497613289 175.51345462737123 59.21252835599901 H 0.0 **** 0.06
6018 H 1.561772555403138 173.9566516533652 58.737840441111686 H 0.0 **** 0.06
6019 H 1.0921137357159125 175.13714916693138 57.491517977818944 H 0.0 **** 0.06
6020 H -0.160472555039604 174.27515633684902 58.41812171275848 H 0.0 **** 0.06
6021 C 58.99313585250721 108.72289050540564 23.194455293855697 C 0.0 **** -0.24
6022 H 59.921203057570864 108.59555962591799 23.75276955739605 H 0.0 **** 0.06
6023 H 58.72553761350207 109.77991857386024 23.171661519213416 H 0.0 **** 0.06
6024 H 58.19799782420182 108.15702096231553 23.67862761025441 H 0.0 **** 0.06
6025 H 59.129434286244816 108.36056868969393 22.175800637757902 H 0.0 **** 0.06
6026 C 153.52135842703882 56.68424134919216 23.597345447249324 C 0.0 **** -0.24
6027 H 153.71574168591667 57.71291271726808 23.29406167947411 H 0.0 **** 0.06
6028 H 153.15845889450458 56.11505193603361 22.741662083803362 H 0.0 **** 0.06
6029 H 152.77012385354755 56.67451805927824 24.386843862744172 H 0.0 **** 0.06
6030 H 154.44350012956625 56.235959265408155 23.967864740439154 H 0.0 **** 0.06
6031 C 93.30633664352075 134.30745327690533 152.62997101230636 C 0.0 **** -0.24
6032 H 94.0024045778411 134.39260438942677 153.46471313475175 H 0.0 **** 0.06
6033 H 92.5390731934601 135.07682521691663 152.7171105612973 H 0.0 **** 0.06
6034 H 92.83857504279212 133.3222975224752 152.64816278203318 H 0.0 **** 0.06
6035 H 93.84555664010719 134.4361331385594 151.69215976113918 H 0.0 **** 0.06
6036 C 44.718427415416386 142.5674107868466 108.41676679664789 C 0.0 **** -0.24
6037 H 43.73601711061434 142.5680660405775 108.88931230035658 H 0.0 **** 0.06
6038 H 44.709884350238724 143.23868630149173 107.55891666455247 H 0.0 **** 0.06
6039 H 44.96167889086047 141.55705155349676 108.08584890364526 H 0.0 **** 0.06
6040 H 45.46697861366738 142.90397958663044 109.13433856163275 H 0.0 **** 0.06
6041 C 137.01612935484542 114.39762681368234 48.8544495083181 C 0.0 **** -0.24
6042 H 136.86878208711434 114.77818413688738 47.84345613521167 H 0.0 **** 0.06
6043 H 136.30379764365006 113.59452123329424 49.047637699491986 H 0.0 **** 0.06
6044 H 136.86084578979714 115.20275170921968 49.572165737318585 H 0.0 **** 0.06
6045 H 138.03195569329145 114.01456115784413 48.95280214115333 H 0.0 **** 0.06
6046 C 55.04440696801194 0.6702846463200274 154.160885122228 C 0.0 **** -0.24
6047 H 55.69120990232082 -0.09016735094463257 153.72278306040522 H 0.0 **** 0.06
6048 H 54.97913376549164 0.5137481756811084 155.23760023043454 H 0.0 **** 0.06
6049 H 54.049663930593624 0.5979079375424519 153.72147804672838 H 0.0 **** 0.06
6050 H 55.458888762037816 1.6585785227709806 153.9621724239421 H 0.0 **** 0.06
6051 C 92.1154197219065 136.48549702484274 124.97648274438788 C 0.0 **** -0.24
6052 H 92.44306390207771 136.25373646575866 125.99048572364302 H 0.0 **** 0.06
6053 H 92.92768034706194 136.28327673546056 124.27799199756882 H 0.0 **** 0.06
6054 H 91.83732297459301 137.5369922077651 124.91631855836718 H 0.0 **** 0.06
6055 H 91.25487952129637 135.86695514621232 124.72344486322856 H 0.0 **** 0.06
6056 C 0.992442695274832 34.723854987552215 192.21003339994886 C 0.0 **** -0.24
6057 H 1.9189860256414875 34.930140718349264 191.6757363831764 H 0.0 **** 0.06
6058 H 0.19053173011062086 35.336842791941365 191.79839710252332 H 0.0 **** 0.06
6059 H 1.1231126382954244 34.95670456058275 193.26677420182074 H 0.0 **** 0.06
6060 H 0.7373522653645068 33.669581883971574 192.10038036332017 H 0.0 **** 0.06
6061 C 48.190364609034816 171.82638372525665 137.95631848644138 C 0.0 **** -0.24
6062 H 48.00026144523102 171.06377157793472 137.20062331171323 H 0.0 **** 0.06
6063 H 48.06251175211774 172.81441166752052 137.51485036721112 H 0.0 **** 0.06
6064 H 49.210082756934526 171.7220268006918 138.3274373634564 H 0.0 **** 0.06
6065 H 47.489430518416825 171.7024627231984 138.78201254322107 H 0.0 **** 0.06
6066 C 163.3039851718387 180.8488440290442 96.92255594333324 C 0.0 **** -0.24
6067 H 162.65145391598122 181.2506980042998 97.69855017925522 H 0.0 **** 0.06
6068 H 162.71205141305722 180.6135717240188 96.03757680919523 H 0.0 **** 0.06
6069 H 163.7882868811471 179.9433475838003 97.28753774465872 H 0.0 **** 0.06
6070 H 164.0614262284182 181.5891604566242 96.66734957674299 H 0.0 **** 0.06
6071 C 56.45599632149582 162.95338131252328 194.80874738127795 C 0.0 **** -0.24
6072 H 57.11937619806817 162.31017188319066 194.23008041014458 H 0.0 **** 0.06
6073 H 56.70815892684895 163.99673773028482 194.62153341436505 H 0.0 **** 0.06
6074 H 56.57440208905061 162.7343089589703 195.86984636677641 H 0.0 **** 0.06
6075 H 55.42298379840149 162.76907572402214 194.5127013155871 H 0.0 **** 0.06
6076 C 117.8693271338702 167.8699189210369 48.09867469725671 C 0.0 **** -0.24
6077 H 117.25883159055809 166.98043295665215 47.944724763720444 H 0.0 **** 0.06
6078 H 117.76872825324966 168.53221318940302 47.238448643543464 H 0.0 **** 0.06
6079 H 118.91306814709611 167.57840608115228 48.21352952846081 H 0.0 **** 0.06
6080 H 117.53569609229481 168.3884563237255 48.99794161485042 H 0.0 **** 0.06
6081 C 120.67386780125685 194.43426113228242 56.89613773018772 C 0.0 **** -0.24
6082 H 119.79252232011075 193.85611929119773 57.174710607534166 H 0.0 **** 0.06
6083 H 121.3611485121977 194.47815661380554 57.74116619057418 H 0.0 **** 0.06
6084 H 120.37166448225261 195.4443780445564 56.619010200613275 H 0.0 **** 0.06
6085 H 121.16821513562832 193.957321398125 56.050073385060045 H 0.0 **** 0.06
6086 C 47.509076267066945 128.6709409057817 168.19606499393703 C 0.0 **** -0.24
6087 H 48.52716395455609 128.7627087205828 168.57456705857078 H 0.0 **** 0.06
6088 H 47.39807768178454 127.71939652271087 167.67757077908325 H 0.0 **** 0.06
6089 H 47.30354535069627 129.48844170117516 167.5057852309075 H 0.0 **** 0.06
6090 H 46.8073022613343 128.71423695998718 169.02993033875214 H 0.0 **** 0.06
6091 C 1.5877257082788105 120.29893735477629 4.080742071173816 C 0.0 **** -0.24
6092 H 0.8625033661857344 119.57848204942633 4.461792507811772 H 0.0 **** 0.06
6093 H 1.1062637873205574 120.94279422069863 3.3435735196471086 H 0.0 **** 0.06
6094 H 2.415294284993905 119.76671921889911 3.6132404579702992 H 0.0 **** 0.06
6095 H 1.9634032083592672 120.9054825915222 4.904504150605753 H 0.0 **** 0.06
6096 C 42.000591768094 114.97877766350726 32.09603743081409 C 0.0 **** -0.24
6097 H 41.526347153858424 114.54708521453367 32.977613499603265 H 0.0 **** 0.06
6098 H 42.43681671028884 114.18226875870394 31.493320213362267 H 0.0 **** 0.06
6099 H 42.78367818767575 115.66981553916281 32.40799895998076 H 0.0 **** 0.06
6100 H 41.25549189737052 115.51455212131705 31.50869121611825 H 0.0 **** 0.06
6101 C 147.10658685472643 54.227251498931196 194.7883470653564 C 0.0 **** -0.24
6102 H 147.9056007620365 53.86603527000773 195.4353117324128 H 0.0 **** 0.06
6103 H 146.1439955126478 54.06013161950921 195.27233007167996 H 0.0 **** 0.06
6104 H 147.1349925756228 53.68906700334355 193.8407109253331 H 0.0 **** 0.06
6105 H 147.24110590814385 55.292548549638695 194.6053130118512 H 0.0 **** 0.06
6106 C 177.63042490493447 36.47874335764013 172.7707173809778 C 0.0 **** -0.24
6107 H 178.1330593375495 37.1536419217299 172.07847882322133 H 0.0 **** 0.06
6108 H 176.68201209358674 36.15696683543567 172.34037601191707 H 0.0 **** 0.06
6109 H 177.44613739874697 36.996194700227676 173.71272424236793 H 0.0 **** 0.06
6110 H 178.26122778928186 35.60825545495453 172.95196092856358 H 0.0 **** 0.06
6111 C 2.668315259531056 99.44068968448346 71.88432600483445 C 0.0 **** -0.24
6112 H 2.867164600748879 99.47271139593329 70.81295434273723 H 0.0 **** 0.06
6113 H 2.098619085080543 100.32377025181904 72.1740252752034 H 0.0 **** 0.06
6114 H 3.6135440403602956 99.42279934875717 72.42859818981917 H 0.0 **** 0.06
6115 H 2.0960498934687735 98.54471042015177 72.12169946339587 H 0.0 **** 0.06
6116 C 95.9588884118412 91.46859660062805 104.03036669689834 C 0.0 **** -0.24
6117 H 95.76054623937216 90.4191670230951 103.80868074072032 H 0.0 **** 0.06
6118 H 96.90578330298052 91.5545428029805 104.56240708570385 H 0.0 **** 0.06
6119 H 95.15549970448535 91.86585908881648 104.65052053029297 H 0.0 **** 0.06
6120 H 96.01144896265487 92.0318716175467 103.09947825376452 H 0.0 **** 0.06
6121 C 99.10096977005404 164.28027493931182 126.69800173768874 C 0.0 **** -0.24
6122 H 98.72694251526102 164.60993648871076 125.72922439678518 H 0.0 **** 0.06
6123 H 99.12129424725714 163.19018783973937 126.72670268017237 H 0.0 **** 0.06
6124 H 98.44527849284555 164.65169709964664 127.48579943949403 H 0.0 **** 0.06
6125 H 100.10804645505888 164.66717884601093 126.85075179823224 H 0.0 **** 0.06
6126 C 85.58048734558744 9.13690444623333 9.40116617838261 C 0.0 **** -0.24
6127 H 85.31981938244124 8.435175581256374 10.19296632895395 H 0.0 **** 0.06
6128 H 84.67716154092773 9.629678366716178 9.040279690654216 H 0.0 **** 0.06
6129 H 86.05275516405104 8.59823106564997 8.57905073627068 H 0.0 **** 0.06
6130 H 86.27175005215011 9.884383923400094 9.79070563539748 H 0.0 **** 0.06
6131 C 41.83820711094104 111.7810541670045 194.03139158795685 C 0.0 **** -0.24
6132 H 42.283719807357414 112.35023536559643 193.21582253998082 H 0.0 **** 0.06
6133 H 41.00953298242348 112.34676349176937 194.45844410526604 H 0.0 **** 0.06
6134 H 42.589144532354325 111.60031378218162 194.80044072993138 H 0.0 **** 0.06
6135 H 41.47043135022241 110.82764761165328 193.65152763621518 H 0.0 **** 0.06
6136 C 4.213288727430722 38.127936770291285 185.9014152710016 C 0.0 **** -0.24
6137 H 4.0293668964812355 39.19314200326721 186.04202913064057 H 0.0 **** 0.06
6138 H 5.144295550853258 37.989447901231244 185.35103555949928 H 0.0 **** 0.06
6139 H 3.3897171267045394 37.68799083394154 185.3390478880444 H 0.0 **** 0.06
6140 H 4.290160075962433 37.64160835192513 186.87435882946244 H 0.0 **** 0.06
6141 C 103.0129242198837 123.07735490892094 63.107234502823815 C 0.0 **** -0.24
6142 H 103.56410833294905 122.50521537271462 62.360473415175534 H 0.0 **** 0.06
6143 H 102.43827513551591 122.39662736811755 63.734774232693155 H 0.0 **** 0.06
6144 H 102.33623212526183 123.7701656561533 62.6067949310052 H 0.0 **** 0.06
6145 H 103.71442460131448 123.63748659479819 63.72510939407016 H 0.0 **** 0.06
6146 C 122.81065126052181 139.37904845730296 185.5081163614893 C 0.0 **** -0.24
6147 H 122.90785017950333 138.77916031158492 186.41280042670627 H 0.0 **** 0.06
6148 H 121.75725764126452 139.46478953107476 185.2400826895747 H 0.0 **** 0.06
6149 H 123.35454598082325 138.89925126267036 184.69419998009835 H 0.0 **** 0.06
6150 H 123.22300003337017 140.3721841902971 185.6842230670709 H 0.0 **** 0.06
6151 C 46.61618704571231 54.87044533788597 140.6108298460328 C 0.0 **** -0.24
6152 H 46.42659955931538 53.906865296782286 141.08269396815794 H 0.0 **** 0.06
6153 H 46.322976050500415 55.67032327812069 141.2908153433389 H 0.0 **** 0.06
6154 H 46.037847793387414 54.94452008656265 139.69030319974337 H 0.0 **** 0.06
6155 H 47.67788748692641 54.95962008987519 140.38162314831166 H 0.0 **** 0.06
6156 C 159.86524422786044 16.734899069627303 97.89419464235144 C 0.0 **** -0.24
6157 H 159.85355117616103 16.517844943643254 98.9620899796796 H 0.0 **** 0.06
6158 H 160.87657213177238 17.006321972208553 97.58951909926688 H 0.0 **** 0.06
6159 H 159.186959911257 17.561955277443346 97.684275375737 H 0.0 **** 0.06
6160 H 159.5437793628559 15.852145978550382 97.34136645433793 H 0.0 **** 0.06
6161 C 122.69777770521449 172.2661281211379 80.06195713086433 C 0.0 **** -0.24
6162 H 123.19894364484702 172.34995774830537 81.0265217928841 H 0.0 **** 0.06
6163 H 123.038550146919 171.36485527847935 79.55331966921361 H 0.0 **** 0.06
6164 H 122.93364029175285 173.13950952826522 79.45329593001361 H 0.0 **** 0.06
6165 H 121.62048737794376 172.21219512333514 80.216619502886 H 0.0 **** 0.06
6166 C 137.69048858981475 86.35695518457021 70.23110784208357 C 0.0 **** -0.24
6167 H 137.64766284902316 85.32892675000346 70.59032667177536 H 0.0 **** 0.06
6168 H 137.4987223630171 86.37480579938028 69.15737752540907 H 0.0 **** 0.06
6169 H 138.67791626259498 86.77098162872207 70.4313610392536 H 0.0 **** 0.06
6170 H 136.93577066487805 86.95278961155958 70.74420127118026 H 0.0 **** 0.06
6171 C 50.7295216735626 176.25448593354417 183.15697126000342 C 0.0 **** -0.24
6172 H 50.73916458263221 176.89891040536372 182.27835656613823 H 0.0 **** 0.06
6173 H 50.33180613289278 175.2769455138061 182.8862911246786 H 0.0 **** 0.06
6174 H 50.102025589048054 176.7028941165632 183.92835928536252 H 0.0 **** 0.06
6175 H 51.745507388582666 176.14235357826274 183.53623509399029 H 0.0 **** 0.06
6176 C 119.46956062528062 167.10416646547094 56.64499440208709 C 0.0 **** -0.24
6177 H 120.42572520572475 167.1963320029626 57.160867940611524 H 0.0 **** 0.06
6178 H 118.86538886053336 167.9907657424142 56.83737133129489 H 0.0 **** 0.06
6179 H 118.94559166839744 166.2205643205358 57.00867207840571 H 0.0 **** 0.06
6180 H 119.64405332210492 167.00739196200303 55.57280332547492 H 0.0 **** 0.06
6181 C 96.62062405488894 112.51083257127823 158.32233404557047 C 0.0 **** -0.24
6182 H 95.63622069902897 112.04505760836332 158.36867409438634 H 0.0 **** 0.06
6183 H 97.38660236642008 111.76097062126962 158.5251640456128 H 0.0 **** 0.06
6184 H 96.68234827106778 113.30389389368531 159.0664869251354 H 0.0 **** 0.06
6185 H 96.77727338684957 112.9311759665726 157.3291326108328 H 0.0 **** 0.06
6186 C 46.494969337055295 116.28940633947002 135.8459163785408 C 0.0 **** -0.24
6187 H 47.51035335259809 116.55784110837078 135.55338643188287 H 0.0 **** 0.06
6188 H 46.5225567523205 115.72594474572207 136.77901640909764 H 0.0 **** 0.06
6189 H 46.04171994251416 115.6787502016046 135.06494342557394 H 0.0 **** 0.06
6190 H 45.906437200212395 117.19632324576025 135.98607107940342 H 0.0 **** 0.06
6191 C 94.92466531407823 9.285828954872294 125.16671170981533 C 0.0 **** -0.24
6192 H 94.69659386974118 9.555749552014717 124.13527534070516 H 0.0 **** 0.06
6193 H 94.45069097028909 9.999480871420616 125.84070276925354 H 0.0 **** 0.06
6194 H 96.00405741492722 9.30523700402783 125.31669737415268 H 0.0 **** 0.06
6195 H 94.54664136208291 8.284343756416469 125.37166040216226 H 0.0 **** 0.06
6196 C 22.348563424258927 120.72407613729709 119.60807484521118 C 0.0 **** -0.24
6197 H 22.581194172595687 120.5410576488533 120.6563409445242 H 0.0 **** 0.06
6198 H 21.28598378398904 120.5491506526215 119.43602458919199 H 0.0 **** 0.06
6199 H 22.93326909406764 120.04929752633706 118.98249127912956 H 0.0 **** 0.06
6200 H 22.5935396564699 121.75547921138158 119.35635276314969 H 0.0 **** 0.06
6201 C 105.5598353590841 52.67689751027913 56.8440399350051 C 0.0 **** -0.24
6202 H 104.47355357565766 52.630956954595064 56.77779795296692 H 0.0 **** 0.06
6203 H 105.91337271884208 53.59822142007839 56.38102884112155 H 0.0 **** 0.06
6204 H 105.9908313412264 51.82061495606224 56.32501167104003 H 0.0 **** 0.06
6205 H 105.86129614666811 52.6570530808949 57.89115323652317 H 0.0 **** 0.06
6206 C 30.718486034076477 170.82204666719167 73.7419544037827 C 0.0 **** -0.24
6207 H 31.27274015870006 170.26992019191505 72.98305625510733 H 0.0 **** 0.06
6208 H 29.688291273728737 170.95862423360018 73.41159092533127 H 0.0 **** 0.06
6209 H 31.18438565818923 171.79589099873974 73.89476950550932 H 0.0 **** 0.06
6210 H 30.72969262946532 170.26298451243946 74.67816945646109 H 0.0 **** 0.06
6211 C 11.35214710430683 5.803628399941545 126.91242306696344 C 0.0 **** -0.24
6212 H 11.81505745524072 4.852180327436827 126.64872006021471 H 0.0 **** 0.06
6213 H 10.865245202677812 5.713503018805795 127.88355057668835 H 0.0 **** 0.06
6214 H 10.61090886631142 6.067413970677592 126.15722656520504 H 0.0 **** 0.06
6215 H 12.115942016225759 6.578856137212256 126.95865006711497 H 0.0 **** 0.06
6216 C 79.85266875752814 87.43015515880217 67.63822200645708 C 0.0 **** -0.24
6217 H 79.77855277597058 88.168251901643 66.84023223242701 H 0.0 **** 0.06
6218 H 80.84027540950336 86.96872272253725 67.61511560902505 H 0.0 **** 0.06
6219 H 79.09019254075696 86.66465967250136 67.49780356269866 H 0.0 **** 0.06
6220 H 79.70310304064782 87.92024248048898 68.60030526534513 H 0.0 **** 0.06
6221 C 91.17564318434842 198.54975158699418 62.82028823407683 C 0.0 **** -0.24
6222 H 91.2399927300894 197.63232696248747 63.404395974668034 H 0.0 **** 0.06
6223 H 90.59233626900516 199.28909466999113 63.368391794521926 H 0.0 **** 0.06
6224 H 90.69124596197713 198.33901519532463 61.86655913294044 H 0.0 **** 0.06
6225 H 92.17838540352238 198.93743989480967 62.639975992052655 H 0.0 **** 0.06
6226 C 70.68351853283696 97.55455379218063 60.386673662332214 C 0.0 **** -0.24
6227 H 70.14115902923658 96.80806915530354 60.96633349610357 H 0.0 **** 0.06
6228 H 70.08796608617146 97.84596458633007 59.52175707351461 H 0.0 **** 0.06
6229 H 71.63162686626757 97.13508518960401 60.05059576126371 H 0.0 **** 0.06
6230 H 70.87341410516478 98.42952974162631 61.00935132313043 H 0.0 **** 0.06
6231 C 64.68058986405134 169.60668386133403 130.47460430034354 C 0.0 **** -0.24
6232 H 64.50972255248541 168.55252386872587 130.2570089245825 H 0.0 **** 0.06
6233 H 64.69115611060948 170.1724663439524 129.54351773164532 H 0.0 **** 0.06
6234 H 65.63921851939102 169.7223545568963 130.9814939325782 H 0.0 **** 0.06
6235 H 63.88228495859039 169.97849353908165 131.11748962419085 H 0.0 **** 0.06
6236 C 112.36645433128936 192.35202726750168 65.67367609718814 C 0.0 **** -0.24
6237 H 113.43960313324652 192.5403800249436 65.69302957055737 H 0.0 **** 0.06
6238 H 112.1637993025291 191.47061599847646 65.0641575773672 H 0.0 **** 0.06
6239 H 111.85376345471431 193.21501521151268 65.24790670807123 H 0.0 **** 0.06
6240 H 112.00865143466757 192.18209783507405 66.68961053275663 H 0.0 **** 0.06
6241 C 24.09683758400371 151.3842284310939 66.95391489532705 C 0.0 **** -0.24
6242 H 24.495352649243273 150.98704664912128 66.02098133290201 H 0.0 **** 0.06
6243 H 24.901331763069834 151.84847501667232 67.52389901395489 H 0.0 **** 0.06
6244 H 23.658924876384333 150.5725901665838 67.53612748583424 H 0.0 **** 0.06
6245 H 23.33009828363552 152.12761863075391 66.7337023654506 H 0.0 **** 0.06
6246 C 109.14385428554493 1.8698639436803006 44.887438728352464 C 0.0 **** -0.24
6247 H 108.52281270343178 0.9876382939185362 45.04429837807142 H 0.0 **** 0.06
6248 H 109.4735910849493 1.9025924122352222 43.84914485502759 H 0.0 **** 0.06
6249 H 110.01279046239074 1.824398777595981 45.54416205523508 H 0.0 **** 0.06
6250 H 108.56461827784165 2.7654079163950556 45.1135942825624 H 0.0 **** 0.06
6251 C 45.518918000663916 115.51512465241603 68.8448689961059 C 0.0 **** -0.24
6252 H 46.565118776294014 115.64308073499922 69.12423950064453 H 0.0 **** 0.06
6253 H 44.96913557736326 116.42874272801214 69.06962879625848 H 0.0 **** 0.06
6254 H 45.09262255822915 114.68513223578361 69.40843839653081 H 0.0 **** 0.06
6255 H 45.451465069687714 115.30220788105555 67.77821290209505 H 0.0 **** 0.06
6256 C 23.721294924280684 122.04418104353147 8.045179628018786 C 0.0 **** -0.24
6257 H 23.666728338441573 121.78518146026056 6.988424993529009 H 0.0 **** 0.06
6258 H 24.03462254959372 121.1716518792228 8.618288112827315 H 0.0 **** 0.06
6259 H 22.74185431197867 122.37343696469054 8.390197422449887 H 0.0 **** 0.06
6260 H 24.444946815035763 122.84839839659526 8.184428002053778 H 0.0 **** 0.06
6261 C 166.16873334183117 159.51446274051324 158.0257668491803 C 0.0 **** -0.24
6262 H 166.1170147633108 160.02047119042524 158.98959116428637 H 0.0 **** 0.06
6263 H 165.82820768706617 160.190560637761 157.241411956333 H 0.0 **** 0.06
6264 H 165.53061489681323 158.6299401187505 158.04614587945878 H 0.0 **** 0.06
6265 H 167.19784988594245 159.21547163710775 157.8274889272593 H 0.0 **** 0.06
6266 C 116.73238541020288 78.17984701419158 42.531784387406674 C 0.0 **** -0.24
6267 H 115.8312907959822 78.76172304372881 42.33650131737335 H 0.0 **** 0.06
6268 H 117.46145706684905 78.36421486014794 41.74215237197265 H 0.0 **** 0.06
6269 H 116.48084319378836 77.11948549016672 42.55567238457354 H 0.0 **** 0.06
6270 H 117.15419362876747 78.47534011939902 43.49266541184369 H 0.0 **** 0.06
6271 C 94.03555523615489 86.83259628979363 134.01034348549305 C 0.0 **** -0.24
6272 H 94.13998284223138 87.04012894054006 132.94560373023404 H 0.0 **** 0.06
6273 H 94.17143823528514 87.75502026271766 134.5757075502725 H 0.0 **** 0.06
6274 H 94.78723729431809 86.10514732987758 134.31449434693354 H 0.0 **** 0.06
6275 H 93.04137037427546 86.43051400858133 134.2056841742346 H 0.0 **** 0.06
6276 C 148.12552424168473 178.91683944868055 82.20452831490542 C 0.0 **** -0.24
6277 H 147.3970077240201 178.85176523037404 81.39633792099363 H 0.0 **** 0.06
6278 H 149.09747738599356 179.19119503716814 81.79525241161161 H 0.0 **** 0.06
6279 H 148.20142735110971 177.95005198163784 82.70308263812157 H 0.0 **** 0.06
6280 H 147.80630814879635 179.67167846832578 82.92174570114179 H 0.0 **** 0.06
6281 C 163.35422238034153 54.52965180814475 54.362672647275645 C 0.0 **** -0.24
6282 H 162.86741235253885 55.209413688935754 55.06195689824082 H 0.0 **** 0.06
6283 H 164.4362776053165 54.601922438392165 54.47958784625666 H 0.0 **** 0.06
6284 H 163.079937859374 54.79959458177359 53.3430660691609 H 0.0 **** 0.06
6285 H 163.03446799706558 53.507757204533846 54.56796085386361 H 0.0 **** 0.06
6286 C 197.07889452255375 77.18928927456295 51.34434876430652 C 0.0 **** -0.24
6287 H 196.1503756039338 76.85762161192736 50.8788330524884 H 0.0 **** 0.06
6288 H 197.13579009269733 78.2773572062647 51.30737903424364 H 0.0 **** 0.06
6289 H 197.92600249160785 76.76142505746321 50.80844954120232 H 0.0 **** 0.06
6290 H 197.10153672077854 76.85927944382507 52.38329849392113 H 0.0 **** 0.06
6291 C 122.11198258066534 36.45871612303563 140.0321470398345 C 0.0 **** -0.24
6292 H 122.03629260328037 37.525921001209724 139.824081054393 H 0.0 **** 0.06
6293 H 122.63273263302372 36.3099515402414 140.97897500773325 H 0.0 **** 0.06
6294 H 122.66791978588788 35.972210724428805 139.23123631818055 H 0.0 **** 0.06
6295 H 121.1130124434319 36.02804274861569 140.09484293756577 H 0.0 **** 0.06
6296 C 97.46177530795907 41.961215961870124 136.1291355891414 C 0.0 **** -0.24
6297 H 98.43072695069873 42.44169756047984 136.26333626696223 H 0.0 **** 0.06
6298 H 97.11047002886536 42.13161597229285 135.11172804633873 H 0.0 **** 0.06
6299 H 96.74700938963949 42.382456938631236 136.8360510034648 H 0.0 **** 0.06
6300 H 97.55937710464411 40.88966983823647 136.3066250286373 H 0.0 **** 0.06
6301 C 112.00078442503559 53.37946078072133 177.4838916047035 C 0.0 **** -0.24
6302 H 112.56310084153043 52.75641628978872 178.17810371476287 H 0.0 **** 0.06
6303 H 112.54422434372756 54.30741337696813 177.3059373522217 H 0.0 **** 0.06
6304 H 111.0221279206165 53.60607726793225 177.90885999343928 H 0.0 **** 0.06
6305 H 111.87231941029134 52.84735434409595 176.54071654853456 H 0.0 **** 0.06
6306 C 0.9351489634360064 33.94769383281333 158.15357928542804 C 0.0 **** -0.24
6307 H 1.7595906870075737 33.235640732774485 158.10015699243186 H 0.0 **** 0.06
6308 H 0.8010179602949279 34.42010296519619 157.18059513204733 H 0.0 **** 0.06
6309 H 1.1605700487234571 34.708232757187204 158.90006540451844 H 0.0 **** 0.06
6310 H 0.020464257212069015 33.42403196821711 158.4330016187468 H 0.0 **** 0.06
6311 C 89.06872887078046 167.71774473780215 79.52535726437083 C 0.0 **** -0.24
6312 H 90.05061733226847 167.2475154339299 79.47132825252174 H 0.0 **** 0.06
6313 H 88.35138061072067 167.01078383673882 79.94141666783088 H 0.0 **** 0.06
6314 H 88.75199705335785 168.011850893107 78.52485578936293 H 0.0 **** 0.06
6315 H 89.12372763193278 168.59948327141896 80.16327180586731 H 0.0 **** 0.06
6316 C 35.90532455528623 133.6097329595972 58.1609653661576 C 0.0 **** -0.24
6317 H 35.57685989440721 133.3996184090285 59.17889931647967 H 0.0 **** 0.06
6318 H 35.06161736270495 133.50690018594386 57.47787071946429 H 0.0 **** 0.06
6319 H 36.688576818057626 132.9045288866269 57.87945545042794 H 0.0 **** 0.06
6320 H 36.295494204189 134.62603033814904 58.10762717906813 H 0.0 **** 0.06
6321 C 78.56891731534375 70.6094130010257 13.588166079211334 C 0.0 **** -0.24
6322 H 78.85848558140196 69.9771526903624 14.427475795538555 H 0.0 **** 0.06
6323 H 77.59210145301881 70.29665129409511 13.21829369163487 H 0.0 **** 0.06
6324 H 79.3071177204892 70.51454808228385 12.791279945528117 H 0.0 **** 0.06
6325 H 78.5192397021757 71.64775963475006 13.91661560980532 H 0.0 **** 0.06
6326 C 128.0682098251187 71.66752044516699 169.29605930506753 C 0.0 **** -0.24
6327 H 127.782577273116 71.82185964379813 170.33683985386787 H 0.0 **** 0.06
6328 H 127.44409046265639 70.88644468940073 168.86012421722745 H 0.0 **** 0.06
6329 H 129.1147092290353 71.36556390217048 169.2481851209725 H 0.0 **** 0.06
6330 H 127.93211779092596 72.59463369852628 168.7405283651989 H 0.0 **** 0.06
6331 C 125.02699109761613 163.28521308391313 16.267974138761303 C 0.0 **** -0.24
6332 H 125.62494593718347 163.83649384682883 16.99300116686473 H 0.0 **** 0.06
6333 H 125.16155143937797 163.72238700284805 15.27889772698228 H 0.0 **** 0.06
6334 H 123.97528317031407 163.3389397629789 16.549131675182878 H 0.0 **** 0.06
6335 H 125.34605301590119 162.24312129676275 16.251853347283145 H 0.0 **** 0.06
6336 C 15.864312538178126 71.53505055493902 181.80029227637567 C 0.0 **** -0.24
6337 H 15.362877753736171 71.77445041036229 180.8620180252931 H 0.0 **** 0.06
6338 H 16.86215262118884 71.15057203997948 181.58937494593144 H 0.0 **** 0.06
6339 H 15.289243841567895 70.77967198244848 182.33675747581657 H 0.0 **** 0.06
6340 H 15.941304008695852 72.43444119285274 182.40984575159422 H 0.0 **** 0.06
6341 C 112.94107303466637 182.11367102062337 120.62118602291747 C 0.0 **** -0.24
6342 H 112.70238820419522 182.72976464554682 119.75422703853101 H 0.0 **** 0.06
6343 H 113.92247702648774 182.3936759630954 121.00579770917261 H 0.0 **** 0.06
6344 H 112.95132035278172 181.06403111194396 120.32888870975111 H 0.0 **** 0.06
6345 H 112.18941604625087 182.26914814471775 121.39509707590045 H 0.0 **** 0.06
6346 C 59.662552022715204 106.08526619775299 115.83150446848151 C 0.0 **** -0.24
6347 H 59.49017382718591 106.88374848820914 115.10924171142491 H 0.0 **** 0.06
6348 H 60.50035611911727 105.47134289114985 115.50058127970561 H 0.0 **** 0.06
6349 H 58.76770302141745 105.46841614746586 115.91110316005626 H 0.0 **** 0.06
6350 H 59.891991935784404 106.5203145174793 116.80446129070401 H 0.0 **** 0.06
6351 C 190.6920847139931 190.93302269456007 89.47886414633999 C 0.0 **** -0.24
6352 H 190.84862761825102 191.96249235829595 89.80103368711823 H 0.0 **** 0.06
6353 H 190.27545978670898 190.92699473482318 88.47115782144195 H 0.0 **** 0.06
6354 H 190.00062464341102 190.43996492702027 90.16235715809785 H 0.0 **** 0.06
6355 H 191.64499465501302 190.4040273152646 89.48135623658865 H 0.0 **** 0.06
6356 C 87.69262951982131 26.4139108459745 99.37750485443809 C 0.0 **** -0.24
6357 H 87.29168417042783 25.746143923546725 100.14026422306787 H 0.0 **** 0.06
6358 H 88.74297454035641 26.1793132042785 99.20524062982207 H 0.0 **** 0.06
6359 H 87.60036958038188 27.446915258525593 99.71455929162701 H 0.0 **** 0.06
6360 H 87.13325073615135 26.282588619813282 98.4506771711606 H 0.0 **** 0.06
6361 C 16.262470043310046 49.855942905955175 25.47898414431876 C 0.0 **** -0.24
6362 H 16.034654313421314 49.82717120775682 26.54484711854974 H 0.0 **** 0.06
6363 H 16.562574690006556 48.862204706369766 25.146351799748288 H 0.0 **** 0.06
6364 H 17.07479010965487 50.56002582650554 25.30043717684643 H 0.0 **** 0.06
6365 H 15.378173964678126 50.17314336631395 24.92702039787696 H 0.0 **** 0.06
6366 C 88.93834657815819 34.283922199994805 58.90214487137143 C 0.0 **** -0.24
6367 H 89.93436051852692 34.709924339864074 59.027986505546664 H 0.0 **** 0.06
6368 H 88.20364764172544 35.08795072786984 58.858725036088686 H 0.0 **** 0.06
6369 H 88.71377285264202 33.629455518446036 59.74422068830813 H 0.0 **** 0.06
6370 H 88.90377696922644 33.709233897972695 57.975771829347195 H 0.0 **** 0.06
6371 C 102.85879284659356 36.002393386777214 35.520459974072594 C 0.0 **** -0.24
6372 H 102.72110871691984 35.62448159930743 36.533109678998585 H 0.0 **** 0.06
6373 H 101.90296168194155 35.993863684485646 34.9960310233391 H 0.0 **** 0.06
6374 H 103.5706843466933 35.369055591834694 34.9900710261754 H 0.0 **** 0.06
6375 H 103.24129785221928 37.022130082281706 35.56215734483192 H 0.0 **** 0.06
6376 C 45.220679761315935 196.91221091944925 73.78731513981941 C 0.0 **** -0.24
6377 H 45.50790945892784 196.08075998424746 73.14294246387638 H 0.0 **** 0.06
6378 H 45.43684612903438 197.85297101820493 73.28106004671032 H 0.0 **** 0.06
6379 H 45.784093990709366 196.8615853726513 74.71797302522735 H 0.0 **** 0.06
6380 H 44.153806279931004 196.85245423632983 74.00399187976396 H 0.0 **** 0.06
6381 C 38.260031200725635 141.33642576806093 9.205310297410648 C 0.0 **** -0.24
6382 H 37.4863710790592 140.8000225651668 9.754633791303547 H 0.0 **** 0.06
6383 H 37.915335523491464 142.34740263192265 8.986949670708725 H 0.0 **** 0.06
6384 H 38.470164100768514 140.81544329156873 8.27109612985194 H 0.0 **** 0.06
6385 H 39.16722751663531 141.38332832194507 9.80772350881142 H 0.0 **** 0.06
6386 C 148.9931176772108 186.18259218401937 38.09073433902563 C 0.0 **** -0.24
6387 H 148.0847471688185 185.85211032362344 38.59355778913147 H 0.0 **** 0.06
6388 H 148.91092818920137 185.9801438573258 37.02241591000376 H 0.0 **** 0.06
6389 H 149.84944235676846 185.6447456677771 38.49788523940464 H 0.0 **** 0.06
6390 H 149.12776810104663 187.25277753318522 38.24976979882669 H 0.0 **** 0.06
6391 C 36.72478514733507 150.56957075202513 191.0697520163711 C 0.0 **** -0.24
6392 H 37.29557180788697 151.36818331601665 190.59672006544116 H 0.0 **** 0.06
6393 H 35.75684194974099 150.472873981369 190.5754095865301 H 0.0 **** 0.06
6394 H 36.57280424153112 150.80589086772682 192.12298764657447 H 0.0 **** 0.06
6395 H 37.27223920860166 149.6311176716094 190.98354561783938 H 0.0 **** 0.06
6396 C 123.53862228283589 36.58685832904871 110.91857084490081 C 0.0 **** -0.24
6397 H 123.65233261227146 36.10512211659466 111.889450783016 H 0.0 **** 0.06
6398 H 124.50731960522307 36.63588182322604 110.42173901568455 H 0.0 **** 0.06
6399 H 123.1501157575538 37.59583763533823 111.05715700354156 H 0.0 **** 0.06
6400 H 122.84433452366915 36.01147846050043 110.30619008361481 H 0.0 **** 0.06
6401 C 149.77078677777985 179.12954084499322 86.82697493491398 C 0.0 **** -0.24
6402 H 148.8596426198285 179.68668590412545 86.60796489236114 H 0.0 **** 0.06
6403 H 149.68150059707915 178.1175970652633 86.4311056886018 H 0.0 **** 0.06
6404 H 149.9208503415541 179.08706084038528 87.90599628287774 H 0.0 **** 0.06
6405 H 150.6211793164194 179.62822828112687 86.36182543618926 H 0.0 **** 0.06
6406 C 172.79158189279636 74.56235769269028 98.28780821284747 C 0.0 **** -0.24
6407 H 173.58369277656385 74.55500489423514 99.0366786761436 H 0.0 **** 0.06
6408 H 171.8337434534265 74.74515636241097 98.7756092668217 H 0.0 **** 0.06
6409 H 172.7635240047653 73.59956658951961 97.7793333462449 H 0.0 **** 0.06
6410 H 172.98562447907966 75.35195808349636 97.56181345957896 H 0.0 **** 0.06
6411 C 3.7814063348521074 111.24917930800859 136.84265436452927 C 0.0 **** -0.24
6412 H 3.239180423576812 110.38580466124245 136.45637470631362 H 0.0 **** 0.06
6413 H 3.163678337238565 111.76786296176914 137.57588834756143 H 0.0 **** 0.06
6414 H 4.016757754398327 111.92688060716307 136.0212644645643 H 0.0 **** 0.06
6415 H 4.705535847593239 110.91598552234814 137.31413311317715 H 0.0 **** 0.06
6416 C 112.15165441206898 139.15655265986888 148.56599101513916 C 0.0 **** -0.24
6417 H 113.20182777357684 138.87810964155713 148.47676610748078 H 0.0 **** 0.06
6418 H 111.57991125673283 138.67526617198357 147.7722550560298 H 0.0 **** 0.06
6419 H 112.05372780485573 140.23860902377393 148.47999054177353 H 0.0 **** 0.06
6420 H 111.77197491291884 138.8334410887395 149.53579207402652 H 0.0 **** 0.06
6421 C 33.0649178233506 59.83793832534364 2.245854277438127 C 0.0 **** -0.24
6422 H 33.78425163726018 59.32123372147581 1.610317572122625 H 0.0 **** 0.06
6423 H 32.969066927270475 59.306769060554075 3.1927647786420152 H 0.0 **** 0.06
6424 H 32.095638458684064 59.8683415582272 1.747157113699643 H 0.0 **** 0.06
6425 H 33.40926468113881 60.85518277743279 2.4318183737930212 H 0.0 **** 0.06
6426 C 122.17223908883375 12.940196711081917 143.85198634054 C 0.0 **** -0.24
6427 H 121.82627725888614 12.142614936943055 143.19494722779683 H 0.0 **** 0.06
6428 H 122.52491676408764 13.77933705808406 143.25051758381846 H 0.0 **** 0.06
6429 H 122.98772710490826 12.569948342354628 144.47288416866948 H 0.0 **** 0.06
6430 H 121.3505700594329 13.268943350881706 144.48828841904972 H 0.0 **** 0.06
6431 C 194.7788317616542 5.479021020914217 1.6314316963064925 C 0.0 **** -0.24
6432 H 194.391120788376 5.42826526145916 2.64812521114537 H 0.0 **** 0.06
6433 H 193.9600970023836 5.684525987329209 0.940808198504179 H 0.0 **** 0.06
6434 H 195.2438050777315 4.528193032403635 1.37205432255643 H 0.0 **** 0.06
6435 H 195.5190447453873 6.276268532290658 1.5629931923521525 H 0.0 **** 0.06
6436 C 81.71019431574354 92.08968288592538 59.25367840860261 C 0.0 **** -0.24
6437 H 81.07049490166449 92.81380271967683 59.756366948875 H 0.0 **** 0.06
6438 H 82.73120077153706 92.18876500378641 59.62297536954354 H 0.0 **** 0.06
6439 H 81.69322744601232 92.27391836859198 58.179164513900844 H 0.0 **** 0.06
6440 H 81.34723628569989 91.08247598599465 59.45518866535028 H 0.0 **** 0.06
6441 C 101.05351432010036 34.45073371556883 84.50316134308389 C 0.0 **** -0.24
6442 H 101.20368493282956 35.45718134446044 84.89429258409132 H 0.0 **** 0.06
6443 H 100.55859841379993 33.83897819188243 85.25875988119054 H 0.0 **** 0.06
6444 H 102.01886367391546 34.01034630228625 84.25281110325363 H 0.0 **** 0.06
6445 H 100.4319596845784 34.49815538350927 83.60925492014036 H 0.0 **** 0.06
6446 C 52.973169612827064 28.50933680248086 127.51102360701094 C 0.0 **** -0.24
6447 H 53.274583183434714 27.50923455508166 127.82161662690618 H 0.0 **** 0.06
6448 H 52.62814820902244 28.480252306345122 126.47711789495168 H 0.0 **** 0.06
6449 H 53.824618393530756 29.186604291230026 127.591263546736 H 0.0 **** 0.06
6450 H 52.16732300945378 28.862321465020543 128.15315421960003 H 0.0 **** 0.06
6451 C 28.86888797261679 91.82463680354627 182.9072697643182 C 0.0 **** -0.24
6452 H 28.63417506636216 91.01853489357097 182.21249769102914 H 0.0 **** 0.06
6453 H 28.76895687817364 91.46277621784213 183.9302875364413 H 0.0 **** 0.06
6454 H 28.18198976160531 92.65494450116796 182.74573450283793 H 0.0 **** 0.06
6455 H 29.892665354535694 92.16195761045199 182.73961455516948 H 0.0 **** 0.06
6456 C 160.10170493166925 24.41880408800651 48.80063772356148 C 0.0 **** -0.24
6457 H 159.4017216828804 23.828942277402277 48.209339012119486 H 0.0 **** 0.06
6458 H 160.0299810571837 24.12470081696965 49.8479025614449 H 0.0 **** 0.06
6459 H 159.85827402944795 25.476840636172213 48.70105985441786 H 0.0 **** 0.06
6460 H 161.11644469911903 24.24457280651447 48.44183783208635 H 0.0 **** 0.06
6461 C 23.348356024470746 164.29090394805922 115.0246554302897 C 0.0 **** -0.24
6462 H 23.962041791352817 165.15261839861276 114.76198135693912 H 0.0 **** 0.06
6463 H 23.464817256594287 164.0725361541414 116.0860257534163 H 0.0 **** 0.06
6464 H 23.664032539774 163.42756401067817 114.43984422231765 H 0.0 **** 0.06
6465 H 22.302386805362573 164.51183930060787 114.8110725348838 H 0.0 **** 0.06
6466 C 184.1299989415511 155.1080332218356 156.9459568455252 C 0.0 **** -0.24
6467 H 184.14285724061187 154.0702745514269 156.6132794017973 H 0.0 **** 0.06
6468 H 184.59729632744836 155.17972059883562 157.92877971080208 H 0.0 **** 0.06
6469 H 183.0998820753594 155.45675425337402 157.0065582490978 H 0.0 **** 0.06
6470 H 184.68164308097664 155.72361631655943 156.23542192061927 H 0.0 **** 0.06
6471 C 96.59861399096701 171.2193352882878 146.1990084174318 C 0.0 **** -0.24
6472 H 97.3516480418682 171.9857508386891 146.01312236584906 H 0.0 **** 0.06
6473 H 95.93697070707663 171.14340937433857 145.3355484447805 H 0.0 **** 0.06
6474 H 96.01710489026789 171.48875668544676 147.08015649725868 H 0.0 **** 0.06
6475 H 97.09033635995706 170.26102828340498 146.36628208250397 H 0.0 **** 0.06
6476 C 0.045101002617229824 6.356878132915085 104.38240255100004 C 0.0 **** -0.24
6477 H -0.7559631018048947 6.015136994378338 103.7267860610001 H 0.0 **** 0.06
6478 H 0.6104725052672109 7.1451032431033354 103.8851511818051 H 0.0 **** 0.06
6479 H 0.707644541716121 5.521486366558406 104.61019489385865 H 0.0 **** 0.06
6480 H -0.38266550234621377 6.744350268070264 105.30779537225271 H 0.0 **** 0.06
6481 C 8.85475904211998 28.906721724568342 171.79774334364862 C 0.0 **** -0.24
6482 H 8.428231886638152 28.294292856626612 171.00293886278985 H 0.0 **** 0.06
6483 H 9.656448306303801 28.355910332400867 172.28937004111324 H 0.0 **** 0.06
6484 H 8.080145401834955 29.14944831892717 172.52447243269322 H 0.0 **** 0.06
6485 H 9.25452979222539 29.827526647720333 171.3712232902469 H 0.0 **** 0.06
6486 C 193.5897023275191 180.44644474373297 57.27898419928158 C 0.0 **** -0.24
6487 H 194.49574271457976 180.11314228362997 56.77303265324025 H 0.0 **** 0.06
6488 H 193.2191147159284 179.64750073518974 57.923198473375066 H 0.0 **** 0.06
6489 H 192.8309356018865 180.69863873272524 56.53886670271953 H 0.0 **** 0.06
6490 H 193.8141366726374 181.32520510134808 57.884166945918594 H 0.0 **** 0.06
6491 C 1.2791655152785708 197.59401649947756 77.8579203394281 C 0.0 **** -0.24
6492 H 1.7890061297095272 198.52380074393164 77.60613177103909 H 0.0 **** 0.06
6493 H 0.5477655353899706 197.3600810828057 77.08297516834821 H 0.0 **** 0.06
6494 H 0.7703442536000225 197.705906143233 78.81546998217243 H 0.0 **** 0.06
6495 H 2.00865776545357 196.7868370885397 77.92513001327396 H 0.0 **** 0.06
6496 C 87.18016073853647 18.721501897438586 2.279146432958811 C 0.0 **** -0.24
6497 H 87.44898134004188 19.6546630445322 1.785807397290256 H 0.0 **** 0.06
6498 H 88.08593881367517 18.18945671832043 2.5699413565107534 H 0.0 **** 0.06
6499 H 86.59968671736158 18.102825477663785 1.5949848483230369 H 0.0 **** 0.06
6500 H 86.58500494499003 18.938095281644394 3.1658124085737143 H 0.0 **** 0.06
6501 C 73.04442258804842 66.68618636077377 93.01211945846455 C 0.0 **** -0.24
6502 H 73.93532045049231 67.09148220337278 93.49114341028587 H 0.0 **** 0.06
6503 H 72.23176272946377 67.4092896726741 93.08442606942072 H 0.0 **** 0.06
6504 H 72.75286112441376 65.7618979218459 93.5115646418426 H 0.0 **** 0.06
6505 H 73.25759298531823 66.48059447634779 91.96328866485197 H 0.0 **** 0.06
6506 C 45.28090000475483 11.562192704605557 64.5826395410698 C 0.0 **** -0.24
6507 H 45.16664122013738 10.86232394744001 65.41084685223723 H 0.0 **** 0.06
6508 H 46.29086680519205 11.974110111958417 64.5935862844002 H 0.0 **** 0.06
6509 H 44.557290465880016 12.369681968210912 64.68670188608758 H 0.0 **** 0.06
6510 H 45.111254785828066 11.040335546955369 63.641036503156215 H 0.0 **** 0.06
6511 C 36.92320543179426 124.40955655843842 112.69628764305594 C 0.0 **** -0.24
6512 H 37.739653501929524 124.47016218738713 113.41679455953835 H 0.0 **** 0.06
6513 H 37.15715370220494 123.65488999307328 111.94571036269411 H 0.0 **** 0.06
6514 H 36.7936902935474 125.37715881343186 112.21232238704715 H 0.0 **** 0.06
6515 H 36.003647084717954 124.13534566047966 113.21329007188547 H 0.0 **** 0.06
6516 C 173.84409759948352 41.24720098842781 20.65208582568846 C 0.0 **** -0.24
6517 H 172.7585145515658 41.302963199779185 20.727535720942228 H 0.0 **** 0.06
6518 H 174.18140360027644 41.86345562578663 19.817139946116697 H 0.0 **** 0.06
6519 H 174.14439736616688 40.21357766660657 20.48528497492299 H 0.0 **** 0.06
6520 H 174.29194772445297 41.6113665677467 21.57682221165254 H 0.0 **** 0.06
6521 C 175.28560794053035 53.55754693230334 7.877135545888024 C 0.0 **** -0.24
6522 H 174.74827728411978 53.35144613148793 8.8022716903522 H 0.0 **** 0.06
6523 H 175.61871788485644 54.59547432241658 7.875351292229595 H 0.0 **** 0.06
6524 H 174.62414156644195 53.38702414957777 7.027627510203274 H 0.0 **** 0.06
6525 H 176.14948611284183 52.89781308596187 7.8038047065719525 H 0.0 **** 0.06
6526 C 106.23409123216041 104.47217773291547 46.693922555935245 C 0.0 **** -0.24
6527 H 105.78919701204643 103.78117087343495 47.410721941827745 H 0.0 **** 0.06
6528 H 107.31618429691159 104.33845401066858 46.68524704257999 H 0.0 **** 0.06
6529 H 105.9962611054884 105.49607292915334 46.98222472210176 H 0.0 **** 0.06
6530 H 105.8342446105303 104.27072969632951 45.70005734739226 H 0.0 **** 0.06
6531 C 99.53817964724917 46.596013301962486 112.98181226667987 C 0.0 **** -0.24
6532 H 99.84656271066024 47.366898964250396 112.27540525218592 H 0.0 **** 0.06
6533 H 99.77026948355658 46.92036889637377 113.99700065938896 H 0.0 **** 0.06
6534 H 100.07258906977401 45.67092408115951 112.76463907626487 H 0.0 **** 0.06
6535 H 98.46596532857313 46.427648905379314 112.88937562222054 H 0.0 **** 0.06
6536 C 116.73034323578838 186.2086420255209 184.1157757497112 C 0.0 **** -0.24
6537 H 117.81962638809239 186.14625394402256 184.10065361393436 H 0.0 **** 0.06
6538 H 116.38682081099267 186.306817422493 185.14541821731967 H 0.0 **** 0.06
6539 H 116.30927109841502 185.30474892077285 183.67529056489323 H 0.0 **** 0.06
6540 H 116.40929443334653 187.0767604425245 183.54087337220795 H 0.0 **** 0.06
6541 C 135.26348791306629 171.03958838579194 131.89794453290318 C 0.0 **** -0.24
6542 H 134.53539376412948 170.94836168451852 131.09154990565509 H 0.0 **** 0.06
6543 H 135.01067870520484 171.89870101786374 132.51914713057914 H 0.0 **** 0.06
6544 H 136.2588110816356 171.17745737111525 131.47420565136932 H 0.0 **** 0.06
6545 H 135.2481127479781 170.13446685633514 132.5049554884221 H 0.0 **** 0.06
6546 C 61.74593748818384 149.14531163094614 36.78100718781167 C 0.0 **** -0.24
6547 H 61.299522070375815 148.4035011122521 37.44347161590605 H 0.0 **** 0.06
6548 H 61.08602659019448 149.3159001324482 35.93040513496817 H 0.0 **** 0.06
6549 H 62.71054923869016 148.78111696383715 36.426441096205735 H 0.0 **** 0.06
6550 H 61.887548655839964 150.07935000752616 37.3254686541035 H 0.0 **** 0.06
6551 C 94.6979042072658 107.29499971857868 169.1000833737026 C 0.0 **** -0.24
6552 H 93.61291072454614 107.33638072955534 169.18835231912874 H 0.0 **** 0.06
6553 H 95.0557301730858 106.32829388600388 169.45605825932623 H 0.0 **** 0.06
6554 H 95.14111169924462 108.08944334341516 169.70037174140506 H 0.0 **** 0.06
6555 H 94.98398204188123 107.4258446223449 168.0562678847939 H 0.0 **** 0.06
6556 C 148.70955968766464 0.34430464873987887 35.84911142738184 C 0.0 **** -0.24
6557 H 148.80933515187184 -0.7208908267097343 36.061486502874004 H 0.0 **** 0.06
6558 H 147.99849309460728 0.4870611826137363 35.03476470922007 H 0.0 **** 0.06
6559 H 149.67953745925655 0.7497291872292635 35.561247313058686 H 0.0 **** 0.06
6560 H 148.3497619356549 0.8592598852294486 36.740536348323076 H 0.0 **** 0.06
6561 C 52.245962292008215 99.99841197635445 92.37953634547645 C 0.0 **** -0.24
6562 H 52.68434521765421 99.00935047264929 92.24291842569122 H 0.0 **** 0.06
6563 H 51.817569029021215 100.33859570594174 91.43742441105266 H 0.0 **** 0.06
6564 H 53.02003420758204 100.69583487985435 92.69942326526686 H 0.0 **** 0.06
6565 H 51.465607336830075 99.94806095089908 93.13838651782982 H 0.0 **** 0.06
6566 C 93.29849819490775 142.020995206248 116.79667928686959 C 0.0 **** -0.24
6567 H 92.47448252900205 141.6660681139347 116.17676586629202 H 0.0 **** 0.06
6568 H 93.53013738595735 143.05352169748573 116.53607613396028 H 0.0 **** 0.06
6569 H 94.17607338152649 141.3979907044012 116.62527959292674 H 0.0 **** 0.06
6570 H 93.01238490832367 141.96612089806973 117.84715141192984 H 0.0 **** 0.06
6571 C 183.46818919055426 112.43207700444796 156.01607944405086 C 0.0 **** -0.24
6572 H 183.40032924316645 111.44838417085904 156.4816910198566 H 0.0 **** 0.06
6573 H 184.4866752803087 112.80919363608487 156.11122051741478 H 0.0 **** 0.06
6574 H 182.77839773595093 113.11576810348083 156.50948483738222 H 0.0 **** 0.06
6575 H 183.20802264382428 112.35098539237265 154.96106134754126 H 0.0 **** 0.06
6576 C 70.92450321329991 163.6204795242715 6.083009404866544 C 0.0 **** -0.24
6577 H 71.77565350584578 164.29966848529557 6.122445428052828 H 0.0 **** 0.06
6578 H 70.63359344504698 163.34523309294536 7.09659392691691 H 0.0 **** 0.06
6579 H 71.20139735895255 162.72443595340184 5.527776815730306 H 0.0 **** 0.06
6580 H 70.0896766483207 164.1133866591598 5.585069810763002 H 0.0 **** 0.06
6581 C 192.96723929528963 171.50808283341544 142.825621843975 C 0.0 **** -0.24
6582 H 192.46517684994555 172.47323580859788 142.893832699252 H 0.0 **** 0.06
6583 H 193.0191074078626 171.0547829172256 143.81583423531194 H 0.0 **** 0.06
6584 H 193.9747772655972 171.64968493352455 142.4354747553541 H 0.0 **** 0.06
6585 H 192.40763778022563 170.85419129955645 142.1554190929545 H 0.0 **** 0.06
6586 C 52.94858594531968 101.69366949929031 176.98564253324022 C 0.0 **** -0.24
6587 H 53.05309177575276 102.36227110458026 177.83980065378765 H 0.0 **** 0.06
6588 H 53.070380739997745 102.26219510124787 176.06254535807128 H 0.0 **** 0.06
6589 H 51.96038097957228 101.234093011823 177.00186222665758 H 0.0 **** 0.06
6590 H 53.711436108856674 100.91614991236924 177.03731094581622 H 0.0 **** 0.06
6591 C 176.36629711688116 35.24926373648316 189.2058477982638 C 0.0 **** -0.24
6592 H 176.09851811947607 34.547534725242315 189.9963074772578 H 0.0 **** 0.06
6593 H 177.44212929621258 35.208052447476575 189.03317049281685 H 0.0 **** 0.06
6594 H 176.08569445957139 36.25856660030195 189.50597701590274 H 0.0 **** 0.06
6595 H 175.84069108943163 34.9827985532371 188.2891961306813 H 0.0 **** 0.06
6596 C 19.065576833308555 133.01929389387266 189.03764745001035 C 0.0 **** -0.24
6597 H 18.54458983768258 133.8996556304785 189.41354695539388 H 0.0 **** 0.06
6598 H 18.955766408007776 132.9672237324661 187.95443830523448 H 0.0 **** 0.06
6599 H 18.637212027882725 132.12450419879752 189.490754177553 H 0.0 **** 0.06
6600 H 20.123100608210606 133.08577019219547 189.29436336707573 H 0.0 **** 0.06
6601 C 109.290180725142 170.93173376012177 26.59124517847593 C 0.0 **** -0.24
6602 H 109.564137781836 171.59380245143964 25.770083043091404 H 0.0 **** 0.06
6603 H 109.86201484289884 171.2001078099559 27.479756180908964 H 0.0 **** 0.06
6604 H 109.50996191316321 169.90021379022764 26.314598327693034 H 0.0 **** 0.06
6605 H 108.22577382541044 171.03319121392144 26.799838060275192 H 0.0 **** 0.06
6606 C 177.3721879395639 185.01315675437786 62.42905827866667 C 0.0 **** -0.24
6607 H 177.15282043424293 183.9904485167026 62.73503447269991 H 0.0 **** 0.06
6608 H 176.44381526858518 185.5802602515868 62.36212184201341 H 0.0 **** 0.06
6609 H 177.86241710881717 185.00243816377625 61.45544276858044 H 0.0 **** 0.06
6610 H 178.0310580734912 185.4782130616931 63.162390032572716 H 0.0 **** 0.06
6611 C 138.58787263497214 6.151781112635831 191.01511458654417 C 0.0 **** -0.24
6612 H 138.5415809450035 6.393603675360936 192.07717561142806 H 0.0 **** 0.06
6613 H 139.10557708113666 6.9504386206807 190.48316347071855 H 0.0 **** 0.06
6614 H 137.57716644551053 6.048793599516102 190.62167942339033 H 0.0 **** 0.06
6615 H 139.1280407353169 5.215208581151842 190.87906318050528 H 0.0 **** 0.06
6616 C 151.02859174480284 25.57056305770037 82.33259228469953 C 0.0 **** -0.24
6617 H 152.07084229087008 25.26350143337322 82.41873541023105 H 0.0 **** 0.06
6618 H 150.8097156506173 26.32823106105579 83.08499053944112 H 0.0 **** 0.06
6619 H 150.38170577219773 24.706880632810908 82.48653347416729 H 0.0 **** 0.06
6620 H 150.85343970248678 25.984030390930542 81.33907971724238 H 0.0 **** 0.06
6621 C 109.96577175976745 126.17098147050763 52.208681893614084 C 0.0 **** -0.24
6622 H 109.4794161817793 127.1468406899159 52.18056159674936 H 0.0 **** 0.06
6623 H 109.23258981288075 125.40760302756823 52.46791779979725 H 0.0 **** 0.06
6624 H 110.7586536646071 126.18327460881886 52.95676668389157 H 0.0 **** 0.06
6625 H 110.39216589443436 125.94973587679092 51.23069922900953 H 0.0 **** 0.06
6626 C 135.16660969869605 49.94147369605645 110.29017884512558 C 0.0 **** -0.24
6627 H 135.28961977588753 50.83930959004073 109.68411373268248 H 0.0 **** 0.06
6628 H 134.86044818815174 50.22295566415124 111.29831511540317 H 0.0 **** 0.06
6629 H 136.11174413654206 49.400817760305415 110.33467293816182 H 0.0 **** 0.06
6630 H 134.40422814104937 49.30372326438152 109.84351183719986 H 0.0 **** 0.06
6631 C 96.59733918692842 102.26809044061667 61.34222898766011 C 0.0 **** -0.24
6632 H 96.13250720961372 103.12317390898002 61.83129558949081 H 0.0 **** 0.06
6633 H 95.91097962826692 101.42067886954123 61.361173622095066 H 0.0 **** 0.06
6634 H 97.51574685523974 102.00496312819737 61.866765973084924 H 0.0 **** 0.06
6635 H 96.82990234443798 102.52364628633836 60.308710599828686 H 0.0 **** 0.06
6636 C 139.54082514427677 171.59390955714701 35.24597900223495 C 0.0 **** -0.24
6637 H 138.6763224886649 171.68150609280542 35.902923943275994 H 0.0 **** 0.06
6638 H 139.26599981092212 171.91225157847543 34.23977072241172 H 0.0 **** 0.06
6639 H 139.8756256864688 170.55748312035183 35.22116984830967 H 0.0 **** 0.06
6640 H 140.34629986870738 172.226153919811 35.619919133744304 H 0.0 **** 0.06
6641 C 131.4914806896289 2.90098528842924 86.71537306666431 C 0.0 **** -0.24
6642 H 130.84508106054932 2.073334671922737 86.42144844498591 H 0.0 **** 0.06
6643 H 131.02236783373598 3.844813617359989 86.4372365907603 H 0.0 **** 0.06
6644 H 132.45283122254682 2.8082864132133807 86.20995170119119 H 0.0 **** 0.06
6645 H 131.64493986548982 2.8750139485791806 87.79437003648883 H 0.0 **** 0.06
6646 C 123.34135846398306 72.79428123914258 41.93886786073887 C 0.0 **** -0.24
6647 H 123.80403467228598 72.1923670912746 41.157201850597744 H 0.0 **** 0.06
6648 H 123.93348199749903 72.7230007998354 42.85101669388695 H 0.0 **** 0.06
6649 H 122.33257775587936 72.42618155844639 42.131221270693516 H 0.0 **** 0.06
6650 H 123.29303938099599 73.83366627675154 41.61577705420484 H 0.0 **** 0.06
6651 C 49.52817829965326 172.33929900578462 46.317130637534945 C 0.0 **** -0.24
6652 H 48.76310820718166 171.68102959947777 45.90580130591593 H 0.0 **** 0.06
6653 H 49.23588238500179 172.6539158594983 47.319742750700414 H 0.0 **** 0.06
6654 H 49.63469760927319 173.21585180725145 45.677779002654916 H 0.0 **** 0.06
6655 H 50.47860693091354 171.80724258112235 46.36553594730481 H 0.0 **** 0.06
6656 C 50.06671918823261 157.7454104764081 115.07705667861472 C 0.0 **** -0.24
6657 H 51.14578442004152 157.8973736327573 115.0511316345436 H 0.0 **** 0.06
6658 H 49.83898971828232 156.71445619579202 114.80529344983472 H 0.0 **** 0.06
6659 H 49.5880249533014 158.42223409245332 114.37003738383197 H 0.0 **** 0.06
6660 H 49.69620857867129 157.94804734946132 116.0822531183365 H 0.0 **** 0.06
6661 C 104.4862111558981 135.93317879229633 135.2250240988531 C 0.0 **** -0.24
6662 H 104.38771662887302 136.7125709325223 135.980322974809 H 0.0 **** 0.06
6663 H 105.19397005299697 135.1801769657605 135.5719192974183 H 0.0 **** 0.06
6664 H 104.84903056535148 136.37199274886393 134.2950068451704 H 0.0 **** 0.06
6665 H 103.5153728325111 135.46863358341955 135.05296777835613 H 0.0 **** 0.06
6666 C 153.1998737138477 4.057102155797537 138.00056904801917 C 0.0 **** -0.24
6667 H 154.04235557826215 4.349167808570201 137.37487134789617 H 0.0 **** 0.06
6668 H 152.4931947086002 4.884187622965868 138.0670828908038 H 0.0 **** 0.06
6669 H 153.559310055093 3.8035856989154695 138.9981253699501 H 0.0 **** 0.06
6670 H 152.7055382027757 3.190527335132458 137.56105662110207 H 0.0 **** 0.06
6671 C 156.40707742291966 52.30286499348111 16.3096466931909 C 0.0 **** -0.24
6672 H 156.02613128146288 52.99774666943159 15.561190831121635 H 0.0 **** 0.06
6673 H 155.5816011318205 51.720356261107014 16.717841665759323 H 0.0 **** 0.06
6674 H 156.8883282003814 52.86240006053919 17.11186043216148 H 0.0 **** 0.06
6675 H 157.13202378864224 51.633190927181346 15.846714626120686 H 0.0 **** 0.06
6676 C 143.9211175249069 54.0142155040528 59.66267370093075 C 0.0 **** -0.24
6677 H 143.2203703901646 54.157045658098156 60.48489001630902 H 0.0 **** 0.06
6678 H 143.8872904382224 54.88005864436644 59.00156019892499 H 0.0 **** 0.06
6679 H 143.6474326436597 53.11895144738821 59.104750294161036 H 0.0 **** 0.06
6680 H 144.9291351450499 53.899460273207865 60.06055733406207 H 0.0 **** 0.06
6681 C 13.213102266014687 183.17525438472745 40.93607245998466 C 0.0 **** -0.24
6682 H 12.942827503122146 183.4322500495436 41.96004729010154 H 0.0 **** 0.06
6683 H 12.308756147884651 183.07505411321463 40.334982025775915 H 0.0 **** 0.06
6684 H 13.759693898397927 182.23168149723853 40.931656855784524 H 0.0 **** 0.06
6685 H 13.842683979617533 183.96071079484355 40.51852274254027 H 0.0 **** 0.06
6686 C 126.89104410482989 20.852097294828766 7.282882837432261 C 0.0 **** -0.24
6687 H 126.2219681187222 20.406242243893104 8.01859900050595 H 0.0 **** 0.06
6688 H 127.91748439466681 20.554949947851057 7.499272487959345 H 0.0 **** 0.06
6689 H 126.80938946697282 21.93774983037629 7.328956257271685 H 0.0 **** 0.06
6690 H 126.61532166930078 20.508826179541984 6.285487342026983 H 0.0 **** 0.06
6691 C 191.01529172855754 34.6402767466098 98.69016953235877 C 0.0 **** -0.24
6692 H 191.18692119973366 34.24942962142211 97.68769384105107 H 0.0 **** 0.06
6693 H 190.14067024317058 35.29089519496608 98.68271439596057 H 0.0 **** 0.06
6694 H 191.8885586372063 35.20899207863883 99.01266527109735 H 0.0 **** 0.06
6695 H 190.847304830749 33.812475027531605 99.37942014562691 H 0.0 **** 0.06
6696 C 23.49650421679263 92.70415065451357 67.03321122641216 C 0.0 **** -0.24
6697 H 22.47326794777706 92.33186488091576 66.97251074339732 H 0.0 **** 0.06
6698 H 23.81693830414622 92.71360843216081 68.07517583047638 H 0.0 **** 0.06
6699 H 23.539704597494705 93.71535152861844 66.62943630511285 H 0.0 **** 0.06
6700 H 24.154435311155197 92.0531984482285 66.45696944144649 H 0.0 **** 0.06
6701 C 51.668247974572466 147.78581088809491 14.96647430869109 C 0.0 **** -0.24
6702 H 51.03766261790173 147.53948654016665 15.82038653629266 H 0.0 **** 0.06
6703 H 52.018556145937055 146.86685146910634 14.496477017627626 H 0.0 **** 0.06
6704 H 52.52418907429916 148.37042476768366 15.303855592684044 H 0.0 **** 0.06
6705 H 51.092954192755116 148.36696670053445 14.24596985849223 H 0.0 **** 0.06
6706 C 182.29795835702828 185.35840674172584 22.189283125352688 C 0.0 **** -0.24
6707 H 181.7136890372727 184.5405600262486 21.766201786906805 H 0.0 **** 0.06
6708 H 182.85430271827755 184.99704606337002 23.054297055603513 H 0.0 **** 0.06
6709 H 181.6272235109501 186.16131874543623 22.496797002827236 H 0.0 **** 0.06
6710 H 182.99389116833123 185.73293689399475 21.439167566582455 H 0.0 **** 0.06
6711 C 187.47705425304645 14.254562941250725 179.53968582078554 C 0.0 **** -0.24
6712 H 188.34087592551333 14.038505907119998 180.1699327575178 H 0.0 **** 0.06
6713 H 187.1650186912635 13.34450736039679 179.02742092086524 H 0.0 **** 0.06
6714 H 187.74611959419914 15.012260414672056 178.80384544388306 H 0.0 **** 0.06
6715 H 186.65985768545983 14.62322548112445 180.15830634053304 H 0.0 **** 0.06
6716 C 29.566783225823315 43.471548068891366 66.72390246054647 C 0.0 **** -0.24
6717 H 30.39317300893731 44.13603661096715 66.9765476471431 H 0.0 **** 0.06
6718 H 29.249540631351294 42.931909343033 67.61725116264302 H 0.0 **** 0.06
6719 H 29.892139982025697 42.76056193619195 65.9654716135741 H 0.0 **** 0.06
6720 H 28.7333313534416 44.05840787741346 66.33905417431214 H 0.0 **** 0.06
6721 C 198.6111855066368 60.72951930945868 65.5933281515633 C 0.0 **** -0.24
6722 H 199.32666371054717 60.24527861448655 66.25811125635926 H 0.0 **** 0.06
6723 H 199.1479467974739 61.25518553750442 64.8032635799591 H 0.0 **** 0.06
6724 H 198.01293569943041 61.441360758079554 66.16169211325513 H 0.0 **** 0.06
6725 H 197.9587658775852 59.976602921808734 65.15179875301897 H 0.0 **** 0.06
6726 C 35.49258353900771 161.44449601976652 37.83296155503433 C 0.0 **** -0.24
6727 H 34.76692902460658 162.22909726210437 37.618447917993365 H 0.0 **** 0.06
6728 H 36.05040676648676 161.70180593827465 38.73409448831873 H 0.0 **** 0.06
6729 H 36.18138756836018 161.34738820097664 36.99378829354049 H 0.0 **** 0.06
6730 H 34.97085217198139 160.4999454579211 37.986116030488034 H 0.0 **** 0.06
6731 C 85.04235644576153 104.78416243546656 126.31363822558765 C 0.0 **** -0.24
6732 H 85.69458862763685 105.16033458398414 125.52535694190212 H 0.0 **** 0.06
6733 H 85.5761586419008 104.03850883005 126.90213680721047 H 0.0 **** 0.06
6734 H 84.15807678333658 104.33124241567111 125.86646533520425 H 0.0 **** 0.06
6735 H 84.73982090614157 105.60948496418908 126.95923073085129 H 0.0 **** 0.06
6736 C 163.94634334045742 62.090555866980026 195.18222039384614 C 0.0 **** -0.24
6737 H 164.07553223978726 61.012082983102545 195.09697881461807 H 0.0 **** 0.06
6738 H 163.3291499779925 62.31444227627043 196.05260072592907 H 0.0 **** 0.06
6739 H 163.45832845346288 62.469981031731095 194.28360605511187 H 0.0 **** 0.06
6740 H 164.92077497209047 62.566123826487825 195.2941748307834 H 0.0 **** 0.06
6741 C 2.4847696231580514 69.56133945786425 156.1534080423342 C 0.0 **** -0.24
6742 H 2.1161042364120135 70.52921361399534 155.81298897241442 H 0.0 **** 0.06
6743 H 3.573911349902346 69.58501020956356 156.20570247475726 H 0.0 **** 0.06
6744 H 2.1706576176982395 68.78621076442553 155.45403700349968 H 0.0 **** 0.06
6745 H 2.078393519488259 69.34553648329583 157.14169354144497 H 0.0 **** 0.06
6746 C 64.2751622782269 7.020241880531458 91.46088890827957 C 0.0 **** -0.24
6747 H 64.48732820354883 7.994952273386531 91.02184455204218 H 0.0 **** 0.06
6748 H 63.938961016037695 7.150653763192103 92.48952739444508 H 0.0 **** 0.06
6749 H 65.17872380914287 6.411403589072421 91.44831278196563 H 0.0 **** 0.06
6750 H 63.49444746189101 6.524459381367713 90.88329147978277 H 0.0 **** 0.06
6751 C 63.75633107357123 129.2232301110447 87.79603276644806 C 0.0 **** -0.24
6752 H 62.8629465748902 128.69539153494927 88.13099884801414 H 0.0 **** 0.06
6753 H 63.95006283898226 130.0651242568935 88.46132589773927 H 0.0 **** 0.06
6754 H 63.6029939103754 129.5894025922437 86.78105044943703 H 0.0 **** 0.06
6755 H 64.60765099112581 128.5435699457905 87.81318257017514 H 0.0 **** 0.06
6756 C 119.6299508984415 146.43995791071706 161.45340645288394 C 0.0 **** -0.24
6757 H 119.86938842520965 147.3749112690451 160.94685085860712 H 0.0 **** 0.06
6758 H 120.37595602036896 146.24309756777697 162.22319151395413 H 0.0 **** 0.06
6759 H 119.63024250554679 145.62487193689276 160.729687271656 H 0.0 **** 0.06
6760 H 118.64473073127476 146.517827773292 161.912912909854 H 0.0 **** 0.06
6761 C 161.59556557341648 11.812976284805927 166.63128578257806 C 0.0 **** -0.24
6762 H 161.2596640960584 12.50906566477849 165.86330112466106 H 0.0 **** 0.06
6763 H 161.071750451664 12.021476882138757 167.56506730854028 H 0.0 **** 0.06
6764 H 162.66857079367716 11.929736589563703 166.78276682731564 H 0.0 **** 0.06
6765 H 161.38193373345524 10.791617399591843 166.31494709737711 H 0.0 **** 0.06
6766 C 198.42403721867004 52.911181160370916 13.734393093049874 C 0.0 **** -0.24
6767 H 198.79473395019883 53.693267589123536 13.070287320625368 H 0.0 **** 0.06
6768 H 198.25836268167632 53.327790700317905 14.727986633851799 H 0.0 **** 0.06
6769 H 199.1575969291556 52.10710947192467 13.794347710981697 H 0.0 **** 0.06
6770 H 197.48564116979176 52.51836420004378 13.343647188324098 H 0.0 **** 0.06
6771 C 105.33028541996347 159.18219181114918 36.36617196194561 C 0.0 **** -0.24
6772 H 105.92252490721916 160.09493373622894 36.29402439944778 H 0.0 **** 0.06
6773 H 104.54540208377074 159.31611761416923 37.1104432204248 H 0.0 **** 0.06
6774 H 105.9749557597107 158.35394294368146 36.66127984309168 H 0.0 **** 0.06
6775 H 104.8799011285154 158.9647801533002 35.39742748908179 H 0.0 **** 0.06
6776 C 138.43088299566307 72.92808384871924 81.54732174234806 C 0.0 **** -0.24
6777 H 137.5892475087034 73.16042460961036 80.89420676218066 H 0.0 **** 0.06
6778 H 139.32118126400425 72.75171544061477 80.94296929609476 H 0.0 **** 0.06
6779 H 138.20261260127563 72.0340772293418 82.12818703490962 H 0.0 **** 0.06
6780 H 138.60860455322918 73.7647880395944 82.22154187468462 H 0.0 **** 0.06
6781 C 58.059408619441285 75.94234745262656 176.1999960494359 C 0.0 **** -0.24
6782 H 57.36041164781125 75.10581524195476 176.1903635747544 H 0.0 **** 0.06
6783 H 58.18737081135771 76.31989412887867 175.18503452908752 H 0.0 **** 0.06
6784 H 59.02178945255321 75.60628219123026 176.58740149364104 H 0.0 **** 0.06
6785 H 57.667490860447344 76.73524175988211 176.83703354436366 H 0.0 **** 0.06
6786 C 147.97199471584636 111.9116723049853 35.83711293993612 C 0.0 **** -0.24
6787 H 148.87336682918522 111.42966411643422 36.215809525913045 H 0.0 **** 0.06
6788 H 147.22800765021094 111.15220865396182 35.59515652376635 H 0.0 **** 0.06
6789 H 148.21463018412348 112.48294817756067 34.940950234659496 H 0.0 **** 0.06
6790 H 147.57233398095477 112.58247653537714 36.59776047191444 H 0.0 **** 0.06
6791 C 33.77224536147912 131.82496493060944 169.01715767966397 C 0.0 **** -0.24
6792 H 33.01547168565685 131.93494787079885 168.239669374623 H 0.0 **** 0.06
6793 H 33.69164957088418 132.6541665657229 169.72120859046916 H 0.0 **** 0.06
6794 H 34.76288298480506 131.82865628994813 168.56229818579925 H 0.0 **** 0.06
6795 H 33.616632969663954 130.8832555218686 169.54341888168574 H 0.0 **** 0.06
6796 C 63.82751568028078 59.541764376938715 185.7175672004621 C 0.0 **** -0.24
6797 H 63.89229410642804 58.780143836697334 186.49417557987198 H 0.0 **** 0.06
6798 H 62.89612860641023 60.09673957573136 185.8306792395814 H 0.0 **** 0.06
6799 H 63.849704604799115 59.063703725655046 184.73862372317896 H 0.0 **** 0.06
6800 H 64.6711646778956 60.22460272148612 185.80817517871662 H 0.0 **** 0.06
6801 C 114.00475201467452 96.14496334585914 50.74662297594307 C 0.0 **** -0.24
6802 H 114.23006584726107 95.90773491122957 51.78683788179217 H 0.0 **** 0.06
6803 H 112.92872103680784 96.0819156522673 50.58517019449789 H 0.0 **** 0.06
6804 H 114.51239940027696 95.43369544975181 50.09446976412028 H 0.0 **** 0.06
6805 H 114.34871586357525 97.15382938744233 50.521028561970866 H 0.0 **** 0.06
6806 C 45.02146463541304 41.168669495232876 124.57575534341382 C 0.0 **** -0.24
6807 H 44.176689932684724 41.598998083212834 125.11429012077255 H 0.0 **** 0.06
6808 H 45.08900397722775 40.103415877127546 124.79960546644347 H 0.0 **** 0.06
6809 H 45.94051729184835 41.665022103493996 124.88652853165462 H 0.0 **** 0.06
6810 H 44.87740300837294 41.306531974960635 123.50445713455201 H 0.0 **** 0.06
6811 C 40.34220414756837 86.72829591690044 110.57906130165884 C 0.0 **** -0.24
6812 H 39.618396185028075 86.12731171443846 111.12863994278788 H 0.0 **** 0.06
6813 H 41.267577836463744 86.79579818735806 111.15241345716026 H 0.0 **** 0.06
6814 H 39.938821901983445 87.72840973151295 110.4205248591791 H 0.0 **** 0.06
6815 H 40.54544985535638 86.26091159871703 109.61584650133818 H 0.0 **** 0.06
6816 C 155.35631830233513 194.62856314120376 169.68832049780573 C 0.0 **** -0.24
6817 H 155.76025071768936 193.65145928164165 169.42474827274248 H 0.0 **** 0.06
6818 H 154.60290165324002 194.9195922584826 168.95604862348523 H 0.0 **** 0.06
6819 H 156.16051272989046 195.36411635019712 169.694276611299 H 0.0 **** 0.06
6820 H 154.90160810852058 194.57908467449352 170.6782084836961 H 0.0 **** 0.06
6821 C 123.41259314583053 112.70068433882548 175.9496137797393 C 0.0 **** -0.24
6822 H 122.8187886669881 113.60659593841845 175.82348638212636 H 0.0 **** 0.06
6823 H 123.19200165426531 112.25403066451562 176.91918924060667 H 0.0 **** 0.06
6824 H 124.47243136615816 112.95213044902695 175.89787882473274 H 0.0 **** 0.06
6825 H 123.16896680807238 111.99274262546766 175.1576318271629 H 0.0 **** 0.06
6826 C 140.23330338006332 38.041114703216664 147.0135594505493 C 0.0 **** -0.24
6827 H 139.64534404754173 37.14694808820124 147.2213756603284 H 0.0 **** 0.06
6828 H 139.639307892344 38.926758144568794 147.2425938828698 H 0.0 **** 0.06
6829 H 140.5145130123442 38.05442979382224 145.95989367672598 H 0.0 **** 0.06
6830 H 141.13211944603 38.03572819480394 147.6294127832284 H 0.0 **** 0.06
6831 C 31.454397617000595 176.22173345855737 121.90427918117788 C 0.0 **** -0.24
6832 H 32.09052678118323 175.95775266850387 121.0596221474766 H 0.0 **** 0.06
6833 H 32.02635189808885 176.81645658548697 122.61748210803714 H 0.0 **** 0.06
6834 H 31.100012249699404 175.31227345004092 122.39041929156812 H 0.0 **** 0.06
6835 H 30.601155901851627 176.79960932615577 121.54988148397317 H 0.0 **** 0.06
6836 C 3.4065935509222243 135.86231992255247 61.32991636116128 C 0.0 **** -0.24
6837 H 3.287101602730644 136.82842954729182 60.83969340508381 H 0.0 **** 0.06
6838 H 4.465095044384242 135.67673335334143 61.51318639047001 H 0.0 **** 0.06
6839 H 3.00547077332385 135.07769846057366 60.688078087653224 H 0.0 **** 0.06
6840 H 2.868290841996668 135.8665781907354 62.27781231917085 H 0.0 **** 0.06
6841 C 3.128204171297398 183.13387539661397 63.969702320916724 C 0.0 **** -0.24
6842 H 2.169921075743275 182.61811808141442 63.90904277476636 H 0.0 **** 0.06
6843 H 2.9734255040933277 184.2042782613437 63.83126110376486 H 0.0 **** 0.06
6844 H 3.793359315378204 182.7589632511093 63.19269899401695 H 0.0 **** 0.06
6845 H 3.5747346456031934 182.95540541307193 64.94739074853578 H 0.0 **** 0.06
6846 C 124.52488280173284 170.43070600707532 17.38600655707063 C 0.0 **** -0.24
6847 H 124.90049731906257 170.6911247252999 18.375598649776634 H 0.0 **** 0.06
6848 H 125.3642598036104 170.3026537775007 16.701763486238633 H 0.0 **** 0.06
6849 H 123.87693415949767 171.2285015449084 17.022729083037348 H 0.0 **** 0.06
6850 H 123.95927437048286 169.50130168458898 17.445473956339583 H 0.0 **** 0.06
6851 C 89.03031249232822 64.72029921168314 111.09090902596091 C 0.0 **** -0.24
6852 H 88.41803943918092 63.91459278503322 111.49651666228851 H 0.0 **** 0.06
6853 H 88.81625135408763 65.64399852896958 111.62761011670767 H 0.0 **** 0.06
6854 H 88.80216240767436 64.85223794808729 110.03332338512462 H 0.0 **** 0.06
6855 H 90.0845581428631 64.46767395582216 111.2053567264935 H 0.0 **** 0.06
6856 C 93.7133436851368 62.49938193382917 26.871172586403873 C 0.0 **** -0.24
6857 H 92.7768662960957 63.04410522767728 26.99461623205525 H 0.0 **** 0.06
6858 H 94.18326164174124 62.359224317460985 27.84449197530924 H 0.0 **** 0.06
6859 H 94.38121618096238 63.067373985077325 26.222734413698248 H 0.0 **** 0.06
6860 H 93.51031101716285 61.52757269116353 26.420506160281718 H 0.0 **** 0.06
6861 C 13.541451540016773 93.69190016834102 38.01951263224288 C 0.0 **** -0.24
6862 H 13.792065612590171 93.6641674213418 36.958602558098676 H 0.0 **** 0.06
6863 H 14.354296461076181 94.1647552655661 38.570946109502245 H 0.0 **** 0.06
6864 H 13.39536561536557 92.67619058271003 38.38482426236877 H 0.0 **** 0.06
6865 H 12.625066537771325 94.26466176637905 38.160797291049704 H 0.0 **** 0.06
6866 C 44.52328496700852 59.341498053894895 14.083857370724502 C 0.0 **** -0.24
6867 H 43.519583914954865 59.765265069726695 14.041473274460486 H 0.0 **** 0.06
6868 H 44.675977216078934 58.68480009601393 13.226088404288078 H 0.0 **** 0.06
6869 H 44.638890805317374 58.77050456515778 15.00469035864711 H 0.0 **** 0.06
6870 H 45.25825694300181 60.1463374363791 14.06035303287348 H 0.0 **** 0.06
6871 C 69.89910533979796 21.91164901664426 172.88325734562642 C 0.0 **** -0.24
6872 H 68.99446473242615 22.453819138137163 172.60908294847002 H 0.0 **** 0.06
6873 H 69.63335832847302 20.907522716684298 173.2158150277531 H 0.0 **** 0.06
6874 H 70.40893952419214 22.439133303224793 173.6891060302475 H 0.0 **** 0.06
6875 H 70.5582376823635 21.844935687640643 172.0174204213888 H 0.0 **** 0.06
6876 C 161.07179344103895 54.3210951325503 47.038077425947705 C 0.0 **** -0.24
6877 H 161.2341502563635 53.35957034550037 47.52420705011258 H 0.0 **** 0.06
6878 H 160.23604635393622 54.83224867004854 47.51523100209948 H 0.0 **** 0.06
6879 H 160.8475865827032 54.1620334436103 45.9839454051899 H 0.0 **** 0.06
6880 H 161.97085798451903 54.93104444470849 47.1296879032009 H 0.0 **** 0.06
6881 C 196.15323965930168 10.012319310244749 49.351645114671726 C 0.0 **** -0.24
6882 H 195.8721027544802 10.669244861797097 48.52947754706918 H 0.0 **** 0.06
6883 H 196.20335963246558 8.983818561063487 48.99468451198183 H 0.0 **** 0.06
6884 H 195.40847681135048 10.085607527421502 50.14528474251057 H 0.0 **** 0.06
6885 H 197.12712554884467 10.310987061637718 49.7391996597498 H 0.0 **** 0.06
6886 C 190.26620091831103 33.60662112146031 135.4505055725296 C 0.0 **** -0.24
6887 H 190.99853260093624 33.41820919014822 136.2352385988247 H 0.0 **** 0.06
6888 H 189.47743830143196 34.25250215000324 135.83628259902991 H 0.0 **** 0.06
6889 H 189.83414541232617 32.66014947740575 135.1227340236377 H 0.0 **** 0.06
6890 H 190.75483932153378 34.09298324060205 134.6067644611045 H 0.0 **** 0.06
6891 C 97.30037873696037 12.55151117065708 7.050603814781141 C 0.0 **** -0.24
6892 H 96.92212928601435 11.541038624513135 7.205417472189993 H 0.0 **** 0.06
6893 H 96.67916670657766 13.062622570043175 6.315470887119517 H 0.0 **** 0.06
6894 H 98.32719022253937 12.502618502112398 6.687254978970941 H 0.0 **** 0.06
6895 H 97.27448367041978 13.097971134979304 7.9934562097298 H 0.0 **** 0.06
6896 C 174.62281338245083 85.48801415541536 133.28548225633426 C 0.0 **** -0.24
6897 H 174.1882230460514 84.5747527847021 132.8787740126778 H 0.0 **** 0.06
6898 H 174.40287576028976 85.55265217368097 134.35041747484712 H 0.0 **** 0.06
6899 H 174.19694717857922 86.3507184088441 132.77320691176828 H 0.0 **** 0.06
6900 H 175.70260419435976 85.47329656113126 133.1358931966742 H 0.0 **** 0.06
6901 C 96.73305186718369 54.30602040474412 2.994419429762658 C 0.0 **** -0.24
6902 H 97.24611115945797 54.04158369453661 2.070253831737439 H 0.0 **** 0.06
6903 H 96.80567839946582 53.47848079185587 3.6999619540549844 H 0.0 **** 0.06
6904 H 95.68366275868951 54.51121662086851 2.7804364490890237 H 0.0 **** 0.06
6905 H 97.19533149438806 55.19392752081751 3.4253813486242635 H 0.0 **** 0.06
6906 C 148.11891402602987 166.40990480857994 126.57754010051599 C 0.0 **** -0.24
6907 H 147.81507709408086 167.38787515414606 126.95176973482376 H 0.0 **** 0.06
6908 H 147.3959025419017 166.06420059196392 125.83775992933835 H 0.0 **** 0.06
6909 H 148.16062694463452 165.7007918936839 127.40429918809136 H 0.0 **** 0.06
6910 H 149.10258784477298 166.48861865352313 126.115716964021 H 0.0 **** 0.06
6911 C 61.177034056747374 27.440274179439328 139.46632080528698 C 0.0 **** -0.24
6912 H 61.83728991869597 27.50537786410939 138.60083284231015 H 0.0 **** 0.06
6913 H 60.37274246324894 26.73508042020201 139.25702800942938 H 0.0 **** 0.06
6914 H 60.75523619775642 28.423158940126356 139.6748892165402 H 0.0 **** 0.06
6915 H 61.74568758777697 27.098424308713064 140.33106499167286 H 0.0 **** 0.06
6916 C 21.707472443852197 122.85314420058887 47.32499357939567 C 0.0 **** -0.24
6917 H 22.609035423286983 122.38744298151565 46.92605339955112 H 0.0 **** 0.06
6918 H 21.123996201902656 123.2747355455694 46.50668135956519 H 0.0 **** 0.06
6919 H 21.985691025216212 123.6461986201119 48.018816166922576 H 0.0 **** 0.06
6920 H 21.112396297358217 122.10489178337971 47.8483227084766 H 0.0 **** 0.06
6921 C 40.780201881080956 9.222269904888776 64.84193658786113 C 0.0 **** -0.24
6922 H 40.65060688684676 8.40319012561843 64.13488628959169 H 0.0 **** 0.06
6923 H 39.985396604206926 9.188364493954538 65.58716586808043 H 0.0 **** 0.06
6924 H 40.73836152242416 10.172396299669785 64.30749019732195 H 0.0 **** 0.06
6925 H 41.74766133291871 9.12684109887848 65.3360633520483 H 0.0 **** 0.06
6926 C 47.47601016466466 187.3932750486286 66.07837327784921 C 0.0 **** -0.24
6927 H 47.21589347829199 188.38057741568764 66.46233690332338 H 0.0 **** 0.06
6928 H 48.08410854897784 187.50187122579598 65.18041509208197 H 0.0 **** 0.06
6929 H 46.56432144854227 186.84644350699986 65.83713970093334 H 0.0 **** 0.06
6930 H 48.039307334872134 186.84672836050487 66.83481805490868 H 0.0 **** 0.06
6931 C 9.20227616135773 182.05595503571487 72.38567072348317 C 0.0 **** -0.24
6932 H 9.595581365592437 181.21204114896432 71.81778070067963 H 0.0 **** 0.06
6933 H 9.614925015809206 182.03813998124767 73.39500677068716 H 0.0 **** 0.06
6934 H 8.115835841854505 181.98584634273553 72.4349137616606 H 0.0 **** 0.06
6935 H 9.484466553512846 182.98653648222174 71.89374956571001 H 0.0 **** 0.06
6936 C 59.40449873429964 22.54208577873402 15.125953754182518 C 0.0 **** -0.24
6937 H 59.03470617481209 21.677608895466904 15.677256630472513 H 0.0 **** 0.06
6938 H 60.39957282913183 22.324246818539763 14.736795127803944 H 0.0 **** 0.06
6939 H 59.455285398411775 23.40260945022746 15.79277561935534 H 0.0 **** 0.06
6940 H 58.729793754204735 22.761085658238102 14.29881657780252 H 0.0 **** 0.06
6941 C 148.8969286885099 151.62213919014965 120.37249236700976 C 0.0 **** -0.24
6942 H 148.7797324980014 150.71186534141043 119.78538229860291 H 0.0 **** 0.06
6943 H 149.90890697880963 152.00881751386163 120.245230694432 H 0.0 **** 0.06
6944 H 148.72300021903735 151.40016234572482 121.42585026994834 H 0.0 **** 0.06
6945 H 148.17789304484012 152.3682498371038 120.03469165432011 H 0.0 **** 0.06
6946 C 92.31477796581035 93.73887274204739 75.92030326580914 C 0.0 **** -0.24
6947 H 91.66294520646531 93.9084146367833 75.06335211212195 H 0.0 **** 0.06
6948 H 93.11451794778142 93.05468453950124 75.638830138115 H 0.0 **** 0.06
6949 H 91.73617610015975 93.3060247683375 76.73625681293464 H 0.0 **** 0.06
6950 H 92.74398125494326 94.68830442565266 76.24262411200311 H 0.0 **** 0.06
6951 C 61.62853979938291 84.36720148499148 122.8709810656643 C 0.0 **** -0.24
6952 H 60.75348782949504 83.72242149281539 122.78108932494774 H 0.0 **** 0.06
6953 H 61.421685949389826 85.32652822046913 122.39734157495553 H 0.0 **** 0.06
6954 H 62.47920770699483 83.89406900963155 122.38008243861401 H 0.0 **** 0.06
6955 H 61.857222655138 84.52305382830971 123.92543489993386 H 0.0 **** 0.06
6956 C 189.91104819024034 140.35882093069677 91.30946699655715 C 0.0 **** -0.24
6957 H 190.75050118643148 139.9505794763303 91.87306284775707 H 0.0 **** 0.06
6958 H 190.28514366469645 140.8759912276007 90.42510498203512 H 0.0 **** 0.06
6959 H 189.36074022317106 141.06133954904118 91.93544097127608 H 0.0 **** 0.06
6960 H 189.2499371712674 139.54847971631875 91.00475075783015 H 0.0 **** 0.06
6961 C 33.54604410431966 19.015033870192894 183.69967888044079 C 0.0 **** -0.24
6962 H 33.80038368256244 18.059259697472072 183.24227011664897 H 0.0 **** 0.06
6963 H 34.45997617118404 19.572424835346368 183.90800842370405 H 0.0 **** 0.06
6964 H 33.005584463739865 18.840890602986633 184.63000633786626 H 0.0 **** 0.06
6965 H 32.91831994940104 19.588207989157326 183.01717649734795 H 0.0 **** 0.06
6966 C 72.88909891828291 11.305854777679855 104.77228011391352 C 0.0 **** -0.24
6967 H 73.7627190346499 11.059225476267954 104.16929706936023 H 0.0 **** 0.06
6968 H 72.67351447108935 12.370741787402267 104.68134772941315 H 0.0 **** 0.06
6969 H 73.08837516803933 11.062049680564456 105.81612001893748 H 0.0 **** 0.06
6970 H 72.03218246732231 10.730264620750063 104.42309701370485 H 0.0 **** 0.06
6971 C 151.10165269006205 112.1210466103247 14.822446577588593 C 0.0 **** -0.24
6972 H 151.22820036562223 112.1536131193451 13.740025308493749 H 0.0 **** 0.06
6973 H 150.3438538784594 111.38047637178386 15.077835225460689 H 0.0 **** 0.06
6974 H 150.7874567496974 113.10160545860037 15.180210383450458 H 0.0 **** 0.06
6975 H 152.04809622024987 111.84868083161547 15.290729860888263 H 0.0 **** 0.06
6976 C 178.8862416695002 182.42526906580048 198.42247761435573 C 0.0 **** -0.24
6977 H 179.76867017292687 182.16799256358567 197.8366718285091 H 0.0 **** 0.06
6978 H 178.04583941027028 182.60572678268062 197.75193474074035 H 0.0 **** 0.06
6979 H 179.08638073533797 183.32394931188634 199.00529648493605 H 0.0 **** 0.06
6980 H 178.64430848649403 181.6018484523127 199.09442144363206 H 0.0 **** 0.06
6981 C 19.58143270749713 40.29117004605071 63.54097738554354 C 0.0 **** -0.24
6982 H 20.07630273099062 40.360399899755706 62.572059650162615 H 0.0 **** 0.06
6983 H 20.31895429956461 40.05701874818185 64.30928577026773 H 0.0 **** 0.06
6984 H 18.828716708629315 39.50318479964049 63.50841101060141 H 0.0 **** 0.06
6985 H 19.102533237247314 41.24199971601141 63.77444240364869 H 0.0 **** 0.06
6986 C 144.74333259456122 78.82261332875024 92.75029829716814 C 0.0 **** -0.24
6987 H 145.43745273399136 79.66077276642969 92.80718994399473 H 0.0 **** 0.06
6988 H 143.72453225881532 79.18582830070582 92.88508494771378 H 0.0 **** 0.06
6989 H 144.97936842288004 78.10197127362531 93.53419486519874 H 0.0 **** 0.06
6990 H 144.83201018510704 78.34204907288003 91.77570865292128 H 0.0 **** 0.06
6991 C 164.04552475037138 138.60753473242698 135.7718646260136 C 0.0 **** -0.24
6992 H 164.26618357320967 138.34821146568822 134.73594386142724 H 0.0 **** 0.06
6993 H 163.8639405606002 139.6802298636672 135.84649735265657 H 0.0 **** 0.06
6994 H 164.8926195222743 138.33730382061094 136.40134485346857 H 0.0 **** 0.06
6995 H 163.1597693584722 138.0647797298327 136.10090118973616 H 0.0 **** 0.06
6996 C 115.93997019583722 112.04945640926815 18.980023314198604 C 0.0 **** -0.24
6997 H 115.6724370184927 113.0454803672418 18.626198538040995 H 0.0 **** 0.06
6998 H 116.65470400454976 112.13517099605161 19.798437801047783 H 0.0 **** 0.06
6999 H 116.3866306014045 111.48280219856952 18.16378000305599 H 0.0 **** 0.06
7000 H 115.04425574409368 111.53757482770027 19.33112235837001 H 0.0 **** 0.06
7001 C 38.77500720869165 123.73288225369805 22.283186552002917 C 0.0 **** -0.24
7002 H 39.82962489161588 123.94509657389568 22.457514683953093 H 0.0 **** 0.06
7003 H 38.68239617053649 122.9189480577788 21.562718616073028 H 0.0 **** 0.06
7004 H 38.284608700123385 124.62292429938239 21.890597563729898 H 0.0 **** 0.06
7005 H 38.30352019068164 123.44256373291199 23.221914853507087 H 0.0 **** 0.06
7006 C 53.05028303149068 112.26035061748934 25.09260053211034 C 0.0 **** -0.24
7007 H 53.5203376333405 112.05689285734994 26.05349763423439 H 0.0 **** 0.06
7008 H 53.3215220016198 111.47926647607585 24.381467847645695 H 0.0 **** 0.06
7009 H 53.390215447954716 113.22636273234642 24.718049803373717 H 0.0 **** 0.06
7010 H 51.96669807319614 112.2801233779779 25.214761851754375 H 0.0 **** 0.06
7011 C 29.81607033926764 58.036938041199676 74.12556952230945 C 0.0 **** -0.24
7012 H 30.176545996548597 57.01744672680016 74.26559259256825 H 0.0 **** 0.06
7013 H 28.848490775729147 58.012873482161666 73.62305047414756 H 0.0 **** 0.06
7014 H 30.528165943533423 58.59379809097214 73.517393236206 H 0.0 **** 0.06
7015 H 29.710095667529203 58.520628455194895 75.096280406639 H 0.0 **** 0.06
7016 C 18.236252908664596 114.35934934529988 183.2596164304035 C 0.0 **** -0.24
7017 H 17.36584134702207 113.72620806518802 183.43137647404967 H 0.0 **** 0.06
7018 H 18.346299597127313 115.05775768166743 184.089160403183 H 0.0 **** 0.06
7019 H 18.10308055107447 114.91467683650629 182.33061954889277 H 0.0 **** 0.06
7020 H 19.128240818722247 113.7376355681453 183.18577728376388 H 0.0 **** 0.06
7021 C 22.97202833517356 60.625035328884906 18.07403664539406 C 0.0 **** -0.24
7022 H 22.89645410761443 60.47314388042422 16.9974056954688 H 0.0 **** 0.06
7023 H 23.567026071783957 59.823849697293156 18.513543164998808 H 0.0 **** 0.06
7024 H 21.973892029447427 60.619340405137365 18.512543402534803 H 0.0 **** 0.06
7025 H 23.451200149347102 61.58452236311642 18.27318162876213 H 0.0 **** 0.06
7026 C 179.41439730408493 115.37141562314577 183.3847761750659 C 0.0 **** -0.24
7027 H 178.75029755503118 114.73195038999464 183.96619462923076 H 0.0 **** 0.06
7028 H 180.38678649662856 115.42594003112904 183.87545433325602 H 0.0 **** 0.06
7029 H 178.98639438826586 116.37109184310884 183.3136380645869 H 0.0 **** 0.06
7030 H 179.53429305260173 114.9545302505295 182.38440459639168 H 0.0 **** 0.06
7031 C 9.299599847732502 187.00755771803068 24.223473966477385 C 0.0 **** -0.24
7032 H 10.31313296913602 186.88008757884154 24.60246425235276 H 0.0 **** 0.06
7033 H 9.3079371763396 186.94291518062863 23.134990372656347 H 0.0 **** 0.06
7034 H 8.918688224713598 187.98219398564407 24.527579458692458 H 0.0 **** 0.06
7035 H 8.659572362112499 186.22471138266513 24.62903048595689 H 0.0 **** 0.06
7036 C 188.21530529989138 64.98792552038097 79.37287581453052 C 0.0 **** -0.24
7037 H 187.61408396555092 64.1599656184504 78.99626592914137 H 0.0 **** 0.06
7038 H 189.27127244882885 64.72187281113595 79.32175804446132 H 0.0 **** 0.06
7039 H 187.9416845652347 65.19359545702467 80.40780009000605 H 0.0 **** 0.06
7040 H 188.03399235823272 65.87407870662057 78.76609266407257 H 0.0 **** 0.06
7041 C 48.611463926508975 24.21953643553738 119.95718620795526 C 0.0 **** -0.24
7042 H 48.57993790736077 23.129852579784426 119.96785841322173 H 0.0 **** 0.06
7043 H 47.626327276735594 24.608604711216884 119.69804848333393 H 0.0 **** 0.06
7044 H 49.34045084452322 24.55424288994689 119.21907486916041 H 0.0 **** 0.06
7045 H 48.89845298433869 24.58504558679755 120.9425932300793 H 0.0 **** 0.06
7046 C 14.609079582488619 106.83364657061114 42.249237728874306 C 0.0 **** -0.24
7047 H 13.894048536029551 106.23464713233301 42.81355498626368 H 0.0 **** 0.06
7048 H 15.61538913755372 106.64383538720847 42.6233078927125 H 0.0 **** 0.06
7049 H 14.370326209726187 107.89017173220387 42.366011295795445 H 0.0 **** 0.06
7050 H 14.55631247113945 106.5635058735198 41.19431198293296 H 0.0 **** 0.06
7051 C 152.9553902948269 163.6250779661913 29.016953846606185 C 0.0 **** -0.24
7052 H 153.57650977739522 162.7310063257391 29.076124653515834 H 0.0 **** 0.06
7053 H 151.90716883788375 163.346276561851 29.128829921801824 H 0.0 **** 0.06
7054 H 153.10248512919685 164.10470328921326 28.04923676880651 H 0.0 **** 0.06
7055 H 153.23543861619476 164.31569815448452 29.81160052810371 H 0.0 **** 0.06
7056 C 12.039014913676965 154.8987561058906 47.74194291660561 C 0.0 **** -0.24
7057 H 11.422213392755282 155.67331835545448 47.286670604473144 H 0.0 **** 0.06
7058 H 12.554490949697993 155.31027683607994 48.610035560902205 H 0.0 **** 0.06
7059 H 12.772449570926483 154.54577412326122 47.01632316340479 H 0.0 **** 0.06
7060 H 11.40691699660033 154.068041425364 48.05418962060993 H 0.0 **** 0.06
7061 C 137.88318273585224 134.69884026420198 187.8070665793182 C 0.0 **** -0.24
7062 H 136.94865611410967 134.65344584085892 188.36786071318485 H 0.0 **** 0.06
7063 H 138.69747523947666 134.3286489099396 188.42963525306692 H 0.0 **** 0.06
7064 H 138.08389280502112 135.73121008552175 187.52097621151256 H 0.0 **** 0.06
7065 H 137.7997858839887 134.08230747345033 186.91211911542786 H 0.0 **** 0.06
7066 C 38.241455149193825 189.8820172542788 9.088269830229763 C 0.0 **** -0.24
7067 H 37.21009916437413 190.20132469621012 9.233824785917903 H 0.0 **** 0.06
7068 H 38.353997363980426 189.4610139135683 8.089843022474128 H 0.0 **** 0.06
7069 H 38.49504010534764 189.12694466024027 9.832642545569001 H 0.0 **** 0.06
7070 H 38.906291539828146 190.73928335944603 9.199135085223531 H 0.0 **** 0.06
7071 C 18.063050036974204 129.38657491215994 110.59473977707984 C 0.0 **** -0.24
7072 H 18.196420672187514 128.30662411322496 110.66961475387507 H 0.0 **** 0.06
7073 H 17.824001600912595 129.7920507800679 111.57711690224511 H 0.0 **** 0.06
7074 H 17.249413739478086 129.60455199886218 109.90218749025792 H 0.0 **** 0.06
7075 H 18.983911630719973 129.8407928422169 110.22750864774719 H 0.0 **** 0.06
7076 C 169.5105379639864 119.86759069010003 162.9555784560681 C 0.0 **** -0.24
7077 H 170.02893163164708 120.82608897999125 162.92247671068156 H 0.0 **** 0.06
7078 H 169.71972673986218 119.37412050693365 163.90529785741597 H 0.0 **** 0.06
7079 H 169.85737480916563 119.23905732988777 162.13560425419786 H 0.0 **** 0.06
7080 H 168.43752968619546 120.03103542640866 162.8590086842322 H 0.0 **** 0.06
7081 C 159.83144131130172 146.29348407351557 32.28759175868966 C 0.0 **** -0.24
7082 H 159.16749963904124 146.73578506944816 33.03034068507998 H 0.0 **** 0.06
7083 H 160.1592098076159 145.31207248000098 32.632853711588254 H 0.0 **** 0.06
7084 H 160.69931213725354 146.93683098235638 32.145846752106976 H 0.0 **** 0.06
7085 H 159.30012977215347 146.18656168994627 31.342123449073483 H 0.0 **** 0.06
7086 C 48.25180208625328 86.32899209892636 31.009223611853997 C 0.0 **** -0.24
7087 H 47.31704088816966 86.88280084853383 30.930147545879493 H 0.0 **** 0.06
7088 H 49.02150578010179 86.97271521222405 31.435179551904014 H 0.0 **** 0.06
7089 H 48.56297871293073 85.99776322476504 30.018105435944392 H 0.0 **** 0.06
7090 H 48.10723200358501 85.46089202638336 31.652852737771923 H 0.0 **** 0.06
7091 C 115.7747502185417 117.43233532249769 76.63183373734402 C 0.0 **** -0.24
7092 H 114.95382106653909 118.13680565431468 76.76642781595055 H 0.0 **** 0.06
7093 H 115.68351270731546 116.62480390668395 77.35940534747904 H 0.0 **** 0.06
7094 H 116.72340888988705 117.9484064436142 76.77872145058468 H 0.0 **** 0.06
7095 H 115.73753263221164 117.01969078664325 75.62431004446188 H 0.0 **** 0.06
7096 C 196.51572812645648 108.74564966555013 131.42277770535011 C 0.0 **** -0.24
7097 H 197.59585977691478 108.7664004158251 131.56369144470185 H 0.0 **** 0.06
7098 H 196.2828202926914 108.26063411007254 130.47504909175308 H 0.0 **** 0.06
7099 H 196.13101512978068 109.765871350276 131.41327376966322 H 0.0 **** 0.06
7100 H 196.0539740564655 108.19055340272095 132.23992519588225 H 0.0 **** 0.06
7101 C 115.17961105940321 16.77777332464686 191.23473179987647 C 0.0 **** -0.24
7102 H 115.88448772803017 16.378256331577134 190.5046559364906 H 0.0 **** 0.06
7103 H 115.72984635182752 17.22325548871153 192.06408242957684 H 0.0 **** 0.06
7104 H 114.5479217083795 15.971747008408101 191.6072419474994 H 0.0 **** 0.06
7105 H 114.55799315268433 17.53737675970345 190.7613551331153 H 0.0 **** 0.06
7106 C 102.46823197880934 130.7839411983133 193.70311473273907 C 0.0 **** -0.24
7107 H 102.04999589819988 131.16586532954898 194.63563136546702 H 0.0 **** 0.06
7108 H 101.6611097069609 130.43039768609418 193.06169731774352 H 0.0 **** 0.06
7109 H 103.1476373507929 129.96026823687964 193.92132304043054 H 0.0 **** 0.06
7110 H 103.01282189794759 131.58005194375028 193.19635131321755 H 0.0 **** 0.06
7111 C 65.43732884027128 69.3137793648765 67.08376017957568 C 0.0 **** -0.24
7112 H 64.74731743342797 68.47596052478718 66.98505594769921 H 0.0 **** 0.06
7113 H 65.83508434524107 69.33806366384579 68.09863925022762 H 0.0 **** 0.06
7114 H 64.90993310018308 70.24465457555755 66.87644219155177 H 0.0 **** 0.06
7115 H 66.25626710382816 69.19434354243498 66.37458468522772 H 0.0 **** 0.06
7116 C 63.31605341578501 191.2284775997192 99.89974364298016 C 0.0 **** -0.24
7117 H 64.17262122208712 191.89618900328702 99.80219479445373 H 0.0 **** 0.06
7118 H 63.66572817353378 190.21527099741525 100.09636412661038 H 0.0 **** 0.06
7119 H 62.74019449298419 191.24070348361064 98.97430660397086 H 0.0 **** 0.06
7120 H 62.68684266552643 191.56322159434524 100.72377455747369 H 0.0 **** 0.06
7121 C 96.19518249977037 50.65684510167898 13.971789152452317 C 0.0 **** -0.24
7122 H 96.01932241306113 51.04408578593092 14.97525791571789 H 0.0 **** 0.06
7123 H 96.1001584120097 51.46645011589146 13.248294285559098 H 0.0 **** 0.06
7124 H 95.46260080390775 49.880864418723206 13.748661987301773 H 0.0 **** 0.06
7125 H 97.19832573483473 50.23471700493997 13.91608285848838 H 0.0 **** 0.06
7126 C 34.16424740573501 97.06410676548637 9.815259133584227 C 0.0 **** -0.24
7127 H 34.736971046782 97.36043077966582 10.694879178418333 H 0.0 **** 0.06
7128 H 33.51717266874823 97.88725783908609 9.509826147633817 H 0.0 **** 0.06
7129 H 33.55589312261398 96.19230157450389 10.055684702300198 H 0.0 **** 0.06
7130 H 34.8479520306893 96.81848024701216 9.003617434342743 H 0.0 **** 0.06
7131 C 77.93699692033343 16.320301339072046 68.86851776864216 C 0.0 **** -0.24
7132 H 78.86941767198297 16.07268703106729 69.37426409248388 H 0.0 **** 0.06
7133 H 77.10383226688312 16.202231365823536 69.56212561723527 H 0.0 **** 0.06
7134 H 77.79879586136302 15.654618370534251 68.01606345753157 H 0.0 **** 0.06
7135 H 77.9767046258082 17.35282343119104 68.51986158508146 H 0.0 **** 0.06
7136 C 179.9809947113476 129.91326487030602 35.3649117105916 C 0.0 **** -0.24
7137 H 180.68191234287755 129.94649239506427 36.198676710988224 H 0.0 **** 0.06
7138 H 179.9467363362199 130.8890559411473 34.88021713069986 H 0.0 **** 0.06
7139 H 178.98779488479136 129.65626275067595 35.73576712586092 H 0.0 **** 0.06
7140 H 180.30540933435958 129.16115212178883 34.6461988092947 H 0.0 **** 0.06
7141 C 8.379251961976934 32.06385336887752 18.632212745866582 C 0.0 **** -0.24
7142 H 8.349510299306644 31.07226804620234 19.086118802339456 H 0.0 **** 0.06
7143 H 8.972046989203477 32.73082343539167 19.257989593463975 H 0.0 **** 0.06
7144 H 7.365381457637113 32.45262292367923 18.54294632921463 H 0.0 **** 0.06
7145 H 8.831258264432392 31.99569875735517 17.64256031217053 H 0.0 **** 0.06
7146 C 197.5967932911105 152.23826154205386 148.83074690669577 C 0.0 **** -0.24
7147 H 197.66129709770405 152.16657961078593 147.74536604001634 H 0.0 **** 0.06
7148 H 198.13001224733915 151.4022780826502 149.28210469934626 H 0.0 **** 0.06
7149 H 196.55027268536378 152.20909361915733 149.13422266762066 H 0.0 **** 0.06
7150 H 198.0438310642391 153.17569877609841 149.16005424300346 H 0.0 **** 0.06
7151 C 132.38656449927885 61.0473787313249 42.091805497919125 C 0.0 **** -0.24
7152 H 133.09005014522484 61.047606652719196 41.258694103793644 H 0.0 **** 0.06
7153 H 132.47732492540672 60.11126296410464 42.6423511254424 H 0.0 **** 0.06
7154 H 131.3708489508124 61.14716471470655 41.709220393146964 H 0.0 **** 0.06
7155 H 132.60929200553124 61.88240890360453 42.75514833976837 H 0.0 **** 0.06
7156 C 109.30185229121906 75.32344152251042 4.480897658746414 C 0.0 **** -0.24
7157 H 108.53623873283675 74.55093253656707 4.560228942118535 H 0.0 **** 0.06
7158 H 110.26120551930802 74.91855532534673 4.803797400522129 H 0.0 **** 0.06
7159 H 109.03241750723532 76.16831684321676 5.113186541162946 H 0.0 **** 0.06
7160 H 109.3769006817862 75.6534325676543 3.4445925206948615 H 0.0 **** 0.06
7161 C 93.28902351258569 156.27002292317428 171.57599942834034 C 0.0 **** -0.24
7162 H 93.17435108789678 155.37923689174056 172.19300359944165 H 0.0 **** 0.06
7163 H 94.05086187944713 156.0888795979622 170.8166259241851 H 0.0 **** 0.06
7164 H 93.59167729910331 157.1093868313527 172.20208616177266 H 0.0 **** 0.06
7165 H 92.3404624253252 156.50120533414008 171.09157272161926 H 0.0 **** 0.06
7166 C 87.28439688250089 113.53555218549252 8.763562206489297 C 0.0 **** -0.24
7167 H 86.79226675119111 112.80332779307179 9.403302813886654 H 0.0 **** 0.06
7168 H 86.88284032714228 113.4612674737649 7.752068343265705 H 0.0 **** 0.06
7169 H 88.35664538716549 113.339180426707 8.744249754338824 H 0.0 **** 0.06
7170 H 87.10545731557556 114.5369981003837 9.15373444106882 H 0.0 **** 0.06
7171 C 143.29493443734253 20.99455170515847 140.50782780620915 C 0.0 **** -0.24
7172 H 142.42011011532833 20.502843351130423 140.08334816629372 H 0.0 **** 0.06
7173 H 144.13208402281538 20.296048430557505 140.5231068043745 H 0.0 **** 0.06
7174 H 143.0724717763059 21.317134190850254 141.52424826818424 H 0.0 **** 0.06
7175 H 143.55565083475594 21.86103911910368 139.90000693912035 H 0.0 **** 0.06
7176 C 39.63366194180256 198.5843157400383 124.31649826277481 C 0.0 **** -0.24
7177 H 38.74136590034993 198.22914655998608 123.80269939949991 H 0.0 **** 0.06
7178 H 40.43426612717616 197.85306019487922 124.20147667218504 H 0.0 **** 0.06
7179 H 39.41449784656089 198.7186202947321 125.37542038116345 H 0.0 **** 0.06
7180 H 39.94673691926482 199.53663336420976 123.88658906414994 H 0.0 **** 0.06
7181 C 83.33190842535501 105.10388111085638 158.28856944784522 C 0.0 **** -0.24
7182 H 82.6174607118779 104.43475473893903 157.80895496988725 H 0.0 **** 0.06
7183 H 83.72688451723616 105.80205942573085 157.55043963949421 H 0.0 **** 0.06
7184 H 84.14901384268444 104.52076733497807 158.71150763522223 H 0.0 **** 0.06
7185 H 82.8313556065832 105.65926151344664 159.08251478181913 H 0.0 **** 0.06
7186 C 169.5981669003283 106.7355351722058 182.15881696934989 C 0.0 **** -0.24
7187 H 170.07438137090065 107.60614683101139 182.60881672642415 H 0.0 **** 0.06
7188 H 170.1990814068567 105.8488151650923 182.35985940364054 H 0.0 **** 0.06
7189 H 169.51496823452533 106.8825835324177 181.08255379621423 H 0.0 **** 0.06
7190 H 168.60378249502924 106.60501557732482 182.5853096002067 H 0.0 **** 0.06
7191 C 115.98434988443043 154.02987683433892 91.47327825361623 C 0.0 **** -0.24
7192 H 115.34888007448558 154.50659835855754 92.2192905731523 H 0.0 **** 0.06
7193 H 116.81850196617103 154.68883651967093 91.23215977328329 H 0.0 **** 0.06
7194 H 115.40247261588905 153.8347216569951 90.57185437559815 H 0.0 **** 0.06
7195 H 116.36650316670855 153.08839486445325 91.86977577541717 H 0.0 **** 0.06
7196 C 9.662727570354122 8.135238958682748 21.573280538645577 C 0.0 **** -0.24
7197 H 10.068943752432801 8.309255759872997 20.576958178462007 H 0.0 **** 0.06
7198 H 10.447231165837422 7.743310682317826 22.2219877572806 H 0.0 **** 0.06
7199 H 8.847672539312725 7.41354224012764 21.512069080996753 H 0.0 **** 0.06
7200 H 9.287811256179708 9.073006841700817 21.98233777169611 H 0.0 **** 0.06
7201 C 169.81488083733325 132.10054168590986 152.80378188163309 C 0.0 **** -0.24
7202 H 170.63953520506558 131.44776868680546 153.09069524149297 H 0.0 **** 0.06
7203 H 169.5411789690716 132.73306257984368 153.64814630829963 H 0.0 **** 0.06
7204 H 168.95680604143865 131.49452893872535 152.51072061515612 H 0.0 **** 0.06
7205 H 170.12176519623844 132.72527784486599 151.96429785667374 H 0.0 **** 0.06
7206 C 79.90887174768415 69.2092194412989 131.37593043614322 C 0.0 **** -0.24
7207 H 80.60565984866372 69.42055922211875 132.18717918100816 H 0.0 **** 0.06
7208 H 79.21521694318022 70.04316875413508 131.26736596268063 H 0.0 **** 0.06
7209 H 79.35237717767225 68.30051662714521 131.6030177486728 H 0.0 **** 0.06
7210 H 80.46304391422214 69.07373915562948 130.4472168196171 H 0.0 **** 0.06
7211 C 11.325388526619719 176.44505140944983 77.08701454323653 C 0.0 **** -0.24
7212 H 11.55922352431287 177.4887183738066 77.29502686006259 H 0.0 **** 0.06
7213 H 10.306465421531925 176.23016503887055 77.41004898350451 H 0.0 **** 0.06
7214 H 12.021457383951656 175.8019176908491 77.62577873526914 H 0.0 **** 0.06
7215 H 11.413445993699355 176.25961354688246 76.01618804969644 H 0.0 **** 0.06
7216 C 141.70851306761534 23.159039829800548 34.7439142538709 C 0.0 **** -0.24
7217 H 141.19239858503863 24.083841277952047 34.4865588584541 H 0.0 **** 0.06
7218 H 142.68627782868123 23.393558047304765 35.166018487001594 H 0.0 **** 0.06
7219 H 141.8356529542275 22.552121309388724 33.84769718592406 H 0.0 **** 0.06
7220 H 141.1198779619241 22.606556929735575 35.47636701157694 H 0.0 **** 0.06
7221 C 57.42196553487872 18.14930636387561 2.324635790096629 C 0.0 **** -0.24
7222 H 57.04368034920353 18.81529234064317 3.101301559325435 H 0.0 **** 0.06
7223 H 56.69301954248 17.36134751722014 2.135582157775602 H 0.0 **** 0.06
7224 H 58.36073329474385 17.704769798379033 2.653278440098923 H 0.0 **** 0.06
7225 H 57.5891109282053 18.717318548239945 1.409796872394388 H 0.0 **** 0.06
7226 C 172.13732408418718 170.91177022565762 197.62701352458032 C 0.0 **** -0.24
7227 H 172.2959325024163 171.13819471339167 196.57190355993276 H 0.0 **** 0.06
7228 H 172.40190841943433 169.87128390557825 197.81900326210678 H 0.0 **** 0.06
7229 H 171.08905731458185 171.07355240144238 197.87868592192552 H 0.0 **** 0.06
7230 H 172.76281600557584 171.56428874203044 198.23533589161443 H 0.0 **** 0.06
7231 C 58.897848654136865 119.05663407849119 193.27448239810502 C 0.0 **** -0.24
7232 H 58.28975029737818 119.3122379548974 194.14188929019383 H 0.0 **** 0.06
7233 H 59.489275267068265 118.16690983175874 193.49554586263912 H 0.0 **** 0.06
7234 H 59.564546386437854 119.88660169180761 193.0417753643123 H 0.0 **** 0.06
7235 H 58.24956509858542 118.86042782600873 192.42091798696686 H 0.0 **** 0.06
7236 C 55.55314111402072 142.88127430793918 66.1294096464959 C 0.0 **** -0.24
7237 H 56.620807624204446 142.66455915379575 66.14313644238035 H 0.0 **** 0.06
7238 H 55.261007451941 143.3279483455357 67.07979951908447 H 0.0 **** 0.06
7239 H 54.996538141229166 141.95591977753807 65.97696676358645 H 0.0 **** 0.06
7240 H 55.333380915682056 143.57548185482452 65.31868404169758 H 0.0 **** 0.06
7241 C 90.83902828018472 76.3402971061168 106.55678533297024 C 0.0 **** -0.24
7242 H 91.47144623736588 77.22900396798842 106.56629117619582 H 0.0 **** 0.06
7243 H 90.24995812166514 76.30431500674362 107.47238310880346 H 0.0 **** 0.06
7244 H 91.4654008441783 75.45094760023345 106.49074337699491 H 0.0 **** 0.06
7245 H 90.17207544274322 76.37941577106 105.69546058125141 H 0.0 **** 0.06
7246 C 86.10606167654856 24.28653234332637 111.35544422678171 C 0.0 **** -0.24
7247 H 86.26692286452743 25.126543175333836 112.03091972987974 H 0.0 **** 0.06
7248 H 85.33951483462133 24.54947934964548 110.6261339329327 H 0.0 **** 0.06
7249 H 85.78093266004566 23.417376345103207 111.92711340764853 H 0.0 **** 0.06
7250 H 87.03588984326845 24.053397291963563 110.83684678594915 H 0.0 **** 0.06
7251 C 198.91153937535972 17.594468170204948 187.61365683582414 C 0.0 **** -0.24
7252 H 199.4568449934555 18.516607664240723 187.40946024744008 H 0.0 **** 0.06
7253 H 198.3350781524177 17.709618907705817 188.53154705156928 H 0.0 **** 0.06
7254 H 199.61814748715895 16.77215157214377 187.72831756579032 H 0.0 **** 0.06
7255 H 198.23649655442813 17.381615494121206 186.78414756429757 H 0.0 **** 0.06
7256 C 168.31251978565749 151.00761498260223 37.59789909153662 C 0.0 **** -0.24
7257 H 168.65395106790973 150.39809302866277 38.434482827051255 H 0.0 **** 0.06
7258 H 167.30443698868578 151.36984635576835 37.80018896951208 H 0.0 **** 0.06
7259 H 168.30625458847612 150.40620216117202 36.688645520745226 H 0.0 **** 0.06
7260 H 168.9839081099991 151.85550395121442 37.468250866495666 H 0.0 **** 0.06
7261 C 167.72380197724738 189.54068222908364 134.15387624421626 C 0.0 **** -0.24
7262 H 167.3575164631894 188.52919329788426 134.3295627474491 H 0.0 **** 0.06
7263 H 167.03036970092387 190.0697911655119 133.50081569849368 H 0.0 **** 0.06
7264 H 168.70509402409624 189.49560724066538 133.6826142959552 H 0.0 **** 0.06
7265 H 167.80173338556565 190.0681188391702 135.1059408723822 H 0.0 **** 0.06
7266 C 8.091846674635235 153.99953034865888 44.28064797274283 C 0.0 **** -0.24
7267 H 9.067203562996156 154.20401977915765 43.837946360464755 H 0.0 **** 0.06
7268 H 7.691979320735129 153.07351492021468 43.86717945718131 H 0.0 **** 0.06
7269 H 7.411348000960572 154.82168712254892 44.055353692241226 H 0.0 **** 0.06
7270 H 8.197045429126945 153.9006369493975 45.36039607749572 H 0.0 **** 0.06
7271 C 194.88331163427318 10.261440269915283 191.68725652378188 C 0.0 **** -0.24
7272 H 194.05121207517996 10.865306747215811 191.32456478935535 H 0.0 **** 0.06
7273 H 195.73907282847682 10.386353071422263 191.0243649514176 H 0.0 **** 0.06
7274 H 194.58832679251873 9.211587018199623 191.70651287981718 H 0.0 **** 0.06
7275 H 195.1531361042335 10.581646215718592 192.69356392593488 H 0.0 **** 0.06
7276 C 31.381927169564108 171.96665720152112 157.38028420204705 C 0.0 **** -0.24
7277 H 30.85358088663861 172.2858256683215 158.27818027549978 H 0.0 **** 0.06
7278 H 32.088823270240255 172.73984537671225 157.08014153557352 H 0.0 **** 0.06
7279 H 30.6645915161169 171.79765190029673 156.57683260860205 H 0.0 **** 0.06
7280 H 31.92053753032701 171.04108127805776 157.58583904118066 H 0.0 **** 0.06
7281 C 47.00816096139678 157.66934957079087 58.241194883436506 C 0.0 **** -0.24
7282 H 45.96919569121138 157.39227707001353 58.42256108981914 H 0.0 **** 0.06
7283 H 47.412814100120045 158.16002795526632 59.125937911035095 H 0.0 **** 0.06
7284 H 47.05819190979588 158.35104813953012 57.39189007521729 H 0.0 **** 0.06
7285 H 47.5896024922705 156.77371733533562 58.02270844354828 H 0.0 **** 0.06
7286 C 58.665836212717636 158.78347211763602 104.75928221206306 C 0.0 **** -0.24
7287 H 57.600308572321325 158.57923474235406 104.8607839779641 H 0.0 **** 0.06
7288 H 59.23215851255935 157.87820019760252 104.97869846459864 H 0.0 **** 0.06
7289 H 58.9537166443651 159.56970546403954 105.45769590030346 H 0.0 **** 0.06
7290 H 58.87837397250968 159.10793406797396 103.74030044566496 H 0.0 **** 0.06
7291 C 182.17895999002798 157.92297288630408 53.09433408173112 C 0.0 **** -0.24
7292 H 182.29700689591198 157.19560947016993 53.89784268926451 H 0.0 **** 0.06
7293 H 181.49006275220987 157.52911772089135 52.3469242935258 H 0.0 **** 0.06
7294 H 183.14732805254238 158.11394405593137 52.6330858129586 H 0.0 **** 0.06
7295 H 181.78044126520004 158.85185500580235 53.50215452411601 H 0.0 **** 0.06
7296 C 79.93124507390286 49.1151669249696 21.06688365136648 C 0.0 **** -0.24
7297 H 79.12007361881695 49.72159560591314 20.662259334985322 H 0.0 **** 0.06
7298 H 80.0054713756848 48.185690326359975 20.502997691268774 H 0.0 **** 0.06
7299 H 79.72914116575362 48.89106489118677 22.11408609713311 H 0.0 **** 0.06
7300 H 80.86938003028251 49.66568213646343 20.987275120926938 H 0.0 **** 0.06
7301 C 31.25578649931481 196.316742950503 144.66570281813415 C 0.0 **** -0.24
7302 H 32.267911320962156 196.67062457890887 144.46997132525777 H 0.0 **** 0.06
7303 H 30.719590444627784 196.2095571787207 143.72267700315476 H 0.0 **** 0.06
7304 H 30.736080389106775 197.03539110536943 145.2998393044803 H 0.0 **** 0.06
7305 H 31.299712277712842 195.3518574780562 145.17119984199974 H 0.0 **** 0.06
7306 C 31.11147671657031 28.325087031451815 132.85410242980265 C 0.0 **** -0.24
7307 H 31.412284270176087 28.164102453515568 131.81948006559844 H 0.0 **** 0.06
7308 H 31.9391430123311 28.068074695862805 133.51655460472193 H 0.0 **** 0.06
7309 H 30.251677503422286 27.69643991026686 133.0851171183466 H 0.0 **** 0.06
7310 H 30.844357262132547 29.372777689758763 132.99595512143765 H 0.0 **** 0.06
7311 C 142.76891056859913 50.14531618659851 150.94328290556945 C 0.0 **** -0.24
7312 H 143.43842046617672 49.75314599565354 150.17675974671295 H 0.0 **** 0.06
7313 H 143.17385410822385 51.07736347042376 151.33677148263428 H 0.0 **** 0.06
7314 H 142.67814855876196 49.418235204295684 151.75058656365042 H 0.0 **** 0.06
7315 H 141.78691223032465 50.32892659596533 150.50752361469068 H 0.0 **** 0.06
7316 C 139.57569495036162 70.15382351123841 188.29327096264353 C 0.0 **** -0.24
7317 H 138.92026100020635 69.3226925650625 188.5549241404591 H 0.0 **** 0.06
7318 H 139.01465958966574 71.08774425089835 188.34294074462434 H 0.0 **** 0.06
7319 H 139.95648254188362 70.0106514575058 187.28183225257285 H 0.0 **** 0.06
7320 H 140.4094797394855 70.1931813539775 188.99398028906825 H 0.0 **** 0.06
7321 C 179.90984633356723 110.52520664943734 130.62589837133757 C 0.0 **** -0.24
7322 H 180.73529680356873 111.12037965726466 131.01694095668796 H 0.0 **** 0.06
7323 H 179.74990944344682 109.6590359661393 131.26864889793714 H 0.0 **** 0.06
7324 H 180.15105231047778 110.18949339952576 129.61660505207303 H 0.0 **** 0.06
7325 H 179.00501324245326 111.13162722468212 130.59986330221287 H 0.0 **** 0.06
7326 C 90.35693804610113 35.26173866914961 102.13665517147254 C 0.0 **** -0.24
7327 H 90.71379244568175 34.85752333301454 103.08304861237266 H 0.0 **** 0.06
7328 H 89.97734314353895 36.27164569674508 102.29280636124744 H 0.0 **** 0.06
7329 H 89.55860189615703 34.62844450969432 101.74874461687418 H 0.0 **** 0.06
7330 H 91.17824472790338 35.289131946597536 101.42064146890161 H 0.0 **** 0.06
7331 C 78.49087793270272 59.77616677984189 40.10046774838651 C 0.0 **** -0.24
7332 H 78.40223815258096 60.74574988779675 39.608727670451785 H 0.0 **** 0.06
7333 H 77.77814290466762 59.07931639378832 39.66048708795579 H 0.0 **** 0.06
7334 H 78.28066289740399 59.888423005841545 41.163874467705114 H 0.0 **** 0.06
7335 H 79.50336992685936 59.3936433379622 39.96772935254073 H 0.0 **** 0.06
7336 C 53.28050249449841 50.13670493695285 106.66818202433467 C 0.0 **** -0.24
7337 H 52.97768447354446 49.112377525419944 106.45024329472884 H 0.0 **** 0.06
7338 H 54.064583699883244 50.43808884610547 105.97329779429322 H 0.0 **** 0.06
7339 H 53.655412133880645 50.19493256189125 107.68939109231061 H 0.0 **** 0.06
7340 H 52.42176751962381 50.7997452307243 106.55764461315991 H 0.0 **** 0.06
7341 C 57.33969271201717 172.63509262771404 154.837141577791 C 0.0 **** -0.24
7342 H 57.727624242345755 173.4358625781892 154.20786001264173 H 0.0 **** 0.06
7343 H 56.26129619084969 172.75290246099377 154.95202199393714 H 0.0 **** 0.06
7344 H 57.816066447285905 172.67919765360475 155.81644872543473 H 0.0 **** 0.06
7345 H 57.55259973356141 171.67285356807113 154.37160396222535 H 0.0 **** 0.06
7346 C 192.13812166011562 176.51612282275116 139.9077655682155 C 0.0 **** -0.24
7347 H 191.38146671628914 177.2575401024513 139.65210879726052 H 0.0 **** 0.06
7348 H 193.11004623518056 177.00332517255393 139.9951337903332 H 0.0 **** 0.06
7349 H 192.18080311419274 175.75652457950466 139.12623788670024 H 0.0 **** 0.06
7350 H 191.88023791320649 176.04574424466804 140.8571899578883 H 0.0 **** 0.06
7351 C 65.16063205272985 186.85982374915065 194.8305379150355 C 0.0 **** -0.24
7352 H 66.16348722869185 187.10628548672938 194.48256553354264 H 0.0 **** 0.06
7353 H 64.59044690399207 187.77762905031676 194.9758032514591 H 0.0 **** 0.06
7354 H 65.22706238224617 186.3185328766576 195.77488314251838 H 0.0 **** 0.06
7355 H 64.66254403905299 186.23605942468203 194.08830474406707 H 0.0 **** 0.06
7356 C 107.51738195854529 123.72498641258386 45.484849463397225 C 0.0 **** -0.24
7357 H 108.45596663421813 124.05206728917469 45.93078282221511 H 0.0 **** 0.06
7358 H 107.07637025416287 122.94143849301742 46.10049709216523 H 0.0 **** 0.06
7359 H 107.70541294754614 123.33857013610262 44.483206069886265 H 0.0 **** 0.06
7360 H 106.83031527053438 124.56964554633242 45.424071012068126 H 0.0 **** 0.06
7361 C 130.215974708032 116.00648625549564 175.28369698442356 C 0.0 **** -0.24
7362 H 130.75996959659815 116.1235279529792 174.34630939681216 H 0.0 **** 0.06
7363 H 129.36446371781665 115.34353871105156 175.12898021753037 H 0.0 **** 0.06
7364 H 129.86363828378444 116.9804041999696 175.6229455013394 H 0.0 **** 0.06
7365 H 130.87755811111177 115.57760884725207 176.03604746274908 H 0.0 **** 0.06
7366 C 5.345624970537443 136.75153452805537 107.08325360982823 C 0.0 **** -0.24
7367 H 4.686645054003037 137.58050963602304 107.34207677280097 H 0.0 **** 0.06
7368 H 4.985010708590693 136.2708531168728 106.17444703298702 H 0.0 **** 0.06
7369 H 5.354969337798309 136.02789440455695 107.89873650413261 H 0.0 **** 0.06
7370 H 6.3555961805358265 137.12790378113317 106.91996237242435 H 0.0 **** 0.06
7371 C 149.21485526722535 124.4720898585901 149.4816962182676 C 0.0 **** -0.24
7372 H 149.48985681378187 123.45825604342025 149.7726392154395 H 0.0 **** 0.06
7373 H 148.8170371300169 124.46283649304235 148.46678154518685 H 0.0 **** 0.06
7374 H 150.0957648276226 125.11246767614955 149.52101884969443 H 0.0 **** 0.06
7375 H 148.45753087285053 124.85247347475274 150.1663273041118 H 0.0 **** 0.06
7376 C 46.20405564530688 149.21587533948448 59.00765923336098 C 0.0 **** -0.24
7377 H 47.20052386742168 149.3737373022075 59.421091670847204 H 0.0 **** 0.06
7378 H 45.605239255830156 148.63973534510967 59.71301398073649 H 0.0 **** 0.06
7379 H 46.284082630712646 148.6710795219803 58.06668479545647 H 0.0 **** 0.06
7380 H 45.728870954561955 150.17985612134368 58.828868235401956 H 0.0 **** 0.06
7381 C 122.9823767579908 173.3488213220378 12.571380822438101 C 0.0 **** -0.24
7382 H 123.61734120306974 173.97218858090477 13.199810664091302 H 0.0 **** 0.06
7383 H 123.52418023850174 173.07227339183106 11.667145286843208 H 0.0 **** 0.06
7384 H 122.08307498072784 173.90379483290795 12.301100533704528 H 0.0 **** 0.06
7385 H 122.70301402528207 172.44826050562833 13.118407664514336 H 0.0 **** 0.06
7386 C 45.695174031930776 60.54036513147847 172.91522608642282 C 0.0 **** -0.24
7387 H 45.28066680937641 60.230863281230825 171.9558236429299 H 0.0 **** 0.06
7388 H 44.943896238141406 60.40963855941226 173.69499140584006 H 0.0 **** 0.06
7389 H 45.98838585847102 61.58885980692986 172.86326051349914 H 0.0 **** 0.06
7390 H 46.568022093765734 59.929907757085374 173.14718026755247 H 0.0 **** 0.06
7391 C 113.82735430263034 122.58469336465038 108.16254344545274 C 0.0 **** -0.24
7392 H 112.94892912429444 123.230525290846 108.14241799327652 H 0.0 **** 0.06
7393 H 113.54506665696272 121.57874300423003 107.85150768303356 H 0.0 **** 0.06
7394 H 114.23080204460575 122.55364047120693 109.17488989304854 H 0.0 **** 0.06
7395 H 114.58249184299174 122.97830871351778 107.48206571836653 H 0.0 **** 0.06
7396 C 18.11273994392704 43.01475497297713 86.70619532040058 C 0.0 **** -0.24
7397 H 17.081435552624043 43.3641294649494 86.66719046071265 H 0.0 **** 0.06
7398 H 18.162209437572983 41.98754598338326 86.34551799314085 H 0.0 **** 0.06
7399 H 18.47125453512413 43.05630626333809 87.73475521778204 H 0.0 **** 0.06
7400 H 18.736212702562796 43.65176095298182 86.07799168675118 H 0.0 **** 0.06
7401 C 37.27347052929065 70.32618902948131 170.4547990718309 C 0.0 **** -0.24
7402 H 37.32926627608501 71.23275615041507 169.85265161441964 H 0.0 **** 0.06
7403 H 38.21472800061639 69.78009715717616 170.37632123802624 H 0.0 **** 0.06
7404 H 36.458041175638186 69.70030338516763 170.09358474370677 H 0.0 **** 0.06
7405 H 37.09360455121583 70.59329506826607 171.49682513046153 H 0.0 **** 0.06
7406 C 115.48135966253938 133.29311331519907 160.0128360224301 C 0.0 **** -0.24
7407 H 115.78293823525314 134.32119385132668 160.21655024892215 H 0.0 **** 0.06
7408 H 116.36240374102272 132.69881425850025 159.76921406118942 H 0.0 **** 0.06
7409 H 114.78762286643087 133.278173480356 159.17236428778625 H 0.0 **** 0.06
7410 H 114.9937928623591 132.8768319957035 160.89405514897354 H 0.0 **** 0.06
7411 C 68.72122915851689 31.305644982418812 73.27913743954726 C 0.0 **** -0.24
7412 H 69.15535229638853 30.517778466281584 72.66357335958487 H 0.0 **** 0.06
7413 H 69.26391350168512 31.371864291445945 74.22233646311778 H 0.0 **** 0.06
7414 H 67.67468172699249 31.076376209237935 73.47658605982919 H 0.0 **** 0.06
7415 H 68.79089125600042 32.25767984956076 72.75239794160308 H 0.0 **** 0.06
7416 C 196.23008376609954 117.26677572550705 65.74109266583469 C 0.0 **** -0.24
7417 H 195.88795194027392 117.15082167705671 64.71176706331892 H 0.0 **** 0.06
7418 H 196.99313032189264 118.04307876221253 65.78479853509032 H 0.0 **** 0.06
7419 H 196.65034558413214 116.32366275165077 66.09144765856252 H 0.0 **** 0.06
7420 H 195.38815976387536 117.5477128318357 66.37369206171945 H 0.0 **** 0.06
7421 C 36.76583879571568 95.04103422246482 13.235688435891632 C 0.0 **** -0.24
7422 H 36.15198080492138 95.1998183234385 14.12231556135302 H 0.0 **** 0.06
7423 H 36.2827369833668 94.31187789751158 12.585101485728927 H 0.0 **** 0.06
7424 H 37.746256186271395 94.66825902390187 13.535089690256086 H 0.0 **** 0.06
7425 H 36.88347197025807 95.98413082043501 12.701922637956244 H 0.0 **** 0.06
7426 C 158.7452489369914 176.35891596241865 142.31519328229973 C 0.0 **** -0.24
7427 H 158.52909007031485 176.6873146660711 141.29787310232788 H 0.0 **** 0.06
7428 H 158.31637822234043 177.0676909878385 143.02352834019572 H 0.0 **** 0.06
7429 H 159.82517542897665 176.3101205672217 142.4583207967264 H 0.0 **** 0.06
7430 H 158.3125916169399 175.37221178651313 142.47856458110974 H 0.0 **** 0.06
7431 C 80.45584473490283 152.74944754764704 80.4095852323469 C 0.0 **** -0.24
7432 H 79.55972977201807 152.57254210254317 81.00532774671771 H 0.0 **** 0.06
7433 H 80.4675135761658 153.7849791558793 80.07004465861573 H 0.0 **** 0.06
7434 H 80.45482107106787 152.08331262486337 79.5461740190976 H 0.0 **** 0.06
7435 H 81.33959898035883 152.55462150552302 81.01757284788079 H 0.0 **** 0.06
7436 C 2.4535029513884865 182.14122436341188 157.3037521728586 C 0.0 **** -0.24
7437 H 2.725144927361839 183.17134807917222 157.5353476386939 H 0.0 **** 0.06
7438 H 1.9665718031925223 181.69202395811084 158.16900399923946 H 0.0 **** 0.06
7439 H 3.352446431111588 181.57557675718328 157.05722610134706 H 0.0 **** 0.06
7440 H 1.7715790835627843 182.12812372353818 156.45395521020956 H 0.0 **** 0.06
7441 C 85.34597625182658 61.58718514252851 132.9828820357057 C 0.0 **** -0.24
7442 H 84.4883887662366 61.035285940003874 132.59780715713381 H 0.0 **** 0.06
7443 H 86.15052229124427 61.56671458149442 132.2484317052398 H 0.0 **** 0.06
7444 H 85.68749019196918 61.12771776512675 133.9102501571074 H 0.0 **** 0.06
7445 H 85.05517243639167 62.62082625487868 133.17559663747124 H 0.0 **** 0.06
7446 C 154.87799178854198 18.872075022934155 57.25356019507434 C 0.0 **** -0.24
7447 H 155.4158806003221 18.89505872614825 56.30678090838303 H 0.0 **** 0.06
7448 H 153.8066088102789 18.9486850020902 57.06479013757837 H 0.0 **** 0.06
7449 H 155.19859611214693 19.70944027641741 57.8740245376996 H 0.0 **** 0.06
7450 H 155.08975509861676 17.935423556635442 57.769924435146734 H 0.0 **** 0.06
7451 C 43.348107620950074 101.40412367961963 187.0728907255836 C 0.0 **** -0.24
7452 H 43.46134027973122 102.48817161189984 187.08172966893298 H 0.0 **** 0.06
7453 H 44.019427923312364 100.97402813399498 186.32995429161747 H 0.0 **** 0.06
7454 H 42.31816925516024 101.14912910885727 186.82359088501653 H 0.0 **** 0.06
7455 H 43.591693509517114 101.00618864649135 188.05821570565405 H 0.0 **** 0.06
7456 C 47.90074102252565 23.846325435498215 12.077267350709263 C 0.0 **** -0.24
7457 H 48.814127293115334 23.255762750722596 12.144266648945631 H 0.0 **** 0.06
7458 H 47.5218500973571 24.0452770389835 13.08063002042968 H 0.0 **** 0.06
7459 H 47.15140871418055 23.29262067749596 11.51002150200253 H 0.0 **** 0.06
7460 H 48.11401730811653 24.789371441451635 11.574793349678941 H 0.0 **** 0.06
7461 C 128.2981636492658 47.6673388297403 193.0725275822997 C 0.0 **** -0.24
7462 H 129.27279019278905 48.156453299170806 193.06880719230867 H 0.0 **** 0.06
7463 H 128.22113244851096 47.00653225917894 192.20805688192988 H 0.0 **** 0.06
7464 H 127.51364799868583 48.422394530698284 193.0237242871945 H 0.0 **** 0.06
7465 H 128.18709962609697 47.08536345971726 193.98669173826093 H 0.0 **** 0.06
7466 C 175.2102091574426 110.79020420873744 41.28292540794331 C 0.0 **** -0.24
7467 H 175.07348813164347 109.89233041244259 40.67992317115704 H 0.0 **** 0.06
7468 H 174.898776453322 111.66384585317147 40.7090502803797 H 0.0 **** 0.06
7469 H 176.26190991305788 110.8888967926274 41.552843894058526 H 0.0 **** 0.06
7470 H 174.60756652358802 110.71493147951907 42.186964960084254 H 0.0 **** 0.06
7471 C 100.1370594196421 131.57276182649136 89.67806340527159 C 0.0 **** -0.24
7472 H 99.57206357383265 130.64849789123033 89.55933875225821 H 0.0 **** 0.06
7473 H 99.45758967020151 132.38319301805595 89.94135187654933 H 0.0 **** 0.06
7474 H 100.64283746306631 131.81128453660597 88.74207505891923 H 0.0 **** 0.06
7475 H 100.87693216848851 131.447310157849 90.46936480343936 H 0.0 **** 0.06
7476 C 142.87005226801884 20.10937241594469 87.97167498961144 C 0.0 **** -0.24
7477 H 143.50680037883038 20.77633681218333 88.55313696260134 H 0.0 **** 0.06
7478 H 141.94622241971007 19.921188089068863 88.51869030273679 H 0.0 **** 0.06
7479 H 143.39117720385514 19.167087084665297 87.80219684924941 H 0.0 **** 0.06
7480 H 142.63756455379055 20.574048001887633 87.01313507944101 H 0.0 **** 0.06
7481 C 158.00928938351248 197.16980751862613 100.1268064998649 C 0.0 **** -0.24
7482 H 157.61911766279104 198.00339368193625 99.5433540113408 H 0.0 **** 0.06
7483 H 157.20135338581488 196.72183801439445 100.70443389479334 H 0.0 **** 0.06
7484 H 158.78373457129493 197.53204549362107 100.8034245589458 H 0.0 **** 0.06
7485 H 158.43422115403305 196.42372447250912 99.45489521603045 H 0.0 **** 0.06
7486 C 195.4274020347831 25.897718963563534 59.745420265411724 C 0.0 **** -0.24
7487 H 195.7694082715128 25.000297585453524 59.228953124694385 H 0.0 **** 0.06
7488 H 194.38892823386053 25.765517090328217 60.05135415054946 H 0.0 **** 0.06
7489 H 195.5031945856786 26.75327748905073 59.07541746752446 H 0.0 **** 0.06
7490 H 196.04701167811342 26.067833960788533 60.62544153927195 H 0.0 **** 0.06
7491 C 38.31354229556666 116.2230417737434 179.4490397201147 C 0.0 **** -0.24
7492 H 37.45458374133233 116.82270207398184 179.1474018330195 H 0.0 **** 0.06
7493 H 38.080722784128625 115.16622497745323 179.32232746603754 H 0.0 **** 0.06
7494 H 38.546052483622475 116.42160153242682 180.49525562325766 H 0.0 **** 0.06
7495 H 39.172559586243096 116.48308593265037 178.83025622075007 H 0.0 **** 0.06
7496 C 91.25202428799813 107.14775206427063 98.67275228049132 C 0.0 **** -0.24
7497 H 92.20899947267284 106.76684592744641 99.03020955819505 H 0.0 **** 0.06
7498 H 90.84097881316853 106.4614297980591 97.9323739663595 H 0.0 **** 0.06
7499 H 91.39808370994956 108.12775557893431 98.21897653287644 H 0.0 **** 0.06
7500 H 90.56080314482614 107.23533777605627 99.51151790672768 H 0.0 **** 0.06
7501 C 77.97403462893584 132.30789070507683 55.51518876101038 C 0.0 **** -0.24
7502 H 77.73677615452614 131.28298759857978 55.231760289970524 H 0.0 **** 0.06
7503 H 77.26351673575637 132.64996758646316 56.26745361165467 H 0.0 **** 0.06
7504 H 77.91225253131539 132.95154128551144 54.637730737161775 H 0.0 **** 0.06
7505 H 78.98389258950641 132.34684569837304 55.92473864935725 H 0.0 **** 0.06
7506 C 143.85730859036573 8.72753748322907 86.02920517205894 C 0.0 **** -0.24
7507 H 142.8052468665883 8.5079454552438 86.21421105963759 H 0.0 **** 0.06
7508 H 144.4785682601619 8.067153296981587 86.63531478300877 H 0.0 **** 0.06
7509 H 144.06348258744947 9.76436322847104 86.29272047423439 H 0.0 **** 0.06
7510 H 144.08019898821266 8.569313431062085 84.97427214512618 H 0.0 **** 0.06
7511 C 78.3076756775431 98.3766703842659 126.44157579955149 C 0.0 **** -0.24
7512 H 78.87633199042011 97.78096964722823 125.72816687603452 H 0.0 **** 0.06
7513 H 77.25256477561352 98.1096466256001 126.37871891350389 H 0.0 **** 0.06
7514 H 78.4295907693135 99.4347168822845 126.20978063192183 H 0.0 **** 0.06
7515 H 78.67361124972956 98.18123504619822 127.44983215612382 H 0.0 **** 0.06
7516 C 88.63411794914165 184.20266745201482 129.95978464000513 C 0.0 **** -0.24
7517 H 89.58228168047484 184.35057721638756 130.4785552674154 H 0.0 **** 0.06
7518 H 88.69984414859854 183.31512583313682 129.33007150347788 H 0.0 **** 0.06
7519 H 88.42137031010722 185.07368966997078 129.33966737000046 H 0.0 **** 0.06
7520 H 87.8362380329375 184.072435800109 130.6907237844815 H 0.0 **** 0.06
7521 C 37.18131737090992 60.261773535556856 173.89776069764787 C 0.0 **** -0.24
7522 H 36.49715840457159 60.16328960263428 174.74034190899408 H 0.0 **** 0.06
7523 H 38.18097850176896 60.4912046695717 174.2659327332006 H 0.0 **** 0.06
7524 H 36.84113506682485 61.066549940474275 173.24494552330628 H 0.0 **** 0.06
7525 H 37.20585529886672 59.32648496293373 173.33848450512403 H 0.0 **** 0.06
7526 C 106.92662341011686 84.46239461861626 65.72736842448825 C 0.0 **** -0.24
7527 H 107.01622460500465 84.04133803107871 64.72559765494171 H 0.0 **** 0.06
7528 H 107.87461766612316 84.91495358348158 66.01655337436006 H 0.0 **** 0.06
7529 H 106.66925708657811 83.67236020458799 66.43206400301943 H 0.0 **** 0.06
7530 H 106.14495304902528 85.22230502024965 65.73209271268468 H 0.0 **** 0.06
7531 C 69.42333915723731 91.01971641725356 37.6561933468094 C 0.0 **** -0.24
7532 H 70.00183512370523 91.90723637624512 37.912430384416865 H 0.0 **** 0.06
7533 H 69.89910427566133 90.50498838541603 36.82087166723679 H 0.0 **** 0.06
7534 H 68.41235798488532 91.31427545741724 37.372955382723916 H 0.0 **** 0.06
7535 H 69.37981760289512 90.35339215001886 38.516816663995456 H 0.0 **** 0.06
7536 C 76.16103824412207 154.71378860626302 127.40145816108401 C 0.0 **** -0.24
7537 H 75.53679798977385 155.50605146901216 127.81342942382685 H 0.0 **** 0.06
7538 H 77.16787104432792 155.09670987033766 127.23196267088656 H 0.0 **** 0.06
7539 H 75.73926684604949 154.37087476580322 126.45750549591082 H 0.0 **** 0.06
7540 H 76.20252882808289 153.88260164716422 128.10480120336786 H 0.0 **** 0.06
7541 C 178.70983452716706 44.44427471462042 96.87395405538706 C 0.0 **** -0.24
7542 H 179.19281328028222 43.55687356404553 97.28398017765761 H 0.0 **** 0.06
7543 H 177.6287254281417 44.311359941601424 96.8924319720469 H 0.0 **** 0.06
7544 H 179.0412931472589 44.594901439150746 95.84644957362639 H 0.0 **** 0.06
7545 H 178.97992071091812 45.31317678073104 97.47380430981934 H 0.0 **** 0.06
7546 C 170.32630254400698 160.08963546245542 54.08550967437611 C 0.0 **** -0.24
7547 H 169.70886666336196 159.2006932029979 53.95233948901483 H 0.0 **** 0.06
7548 H 171.00426226689228 160.18950761817442 53.23659807973172 H 0.0 **** 0.06
7549 H 170.90519794020096 159.99634445274967 55.00437233590151 H 0.0 **** 0.06
7550 H 169.686888399701 160.97023176692858 54.14542944049879 H 0.0 **** 0.06
7551 C 91.6473025114995 31.577549197867995 134.1739347438064 C 0.0 **** -0.24
7552 H 91.98201477437536 32.312204002010304 133.4427810910227 H 0.0 **** 0.06
7553 H 90.98309998915389 32.05706487226263 134.89319576519162 H 0.0 **** 0.06
7554 H 92.51023416643389 31.163361809937612 134.6949697136427 H 0.0 **** 0.06
7555 H 91.11276629171019 30.775768440522484 133.6635394553721 H 0.0 **** 0.06
7556 C 178.5512882191273 80.67958567892569 7.018851578544513 C 0.0 **** -0.24
7557 H 178.00845455037296 80.97859561415137 7.915551835040105 H 0.0 **** 0.06
7558 H 178.15583006559564 79.73140334281175 6.6550414880113635 H 0.0 **** 0.06
7559 H 179.60886146101615 80.56547817534349 7.255984430765835 H 0.0 **** 0.06
7560 H 178.43151597095004 81.44258320317584 6.250746745750462 H 0.0 **** 0.06
7561 C 104.24836791188298 141.94776430495475 91.650270996573 C 0.0 **** -0.24
7562 H 104.76111218068098 141.0716071367103 92.04516665249139 H 0.0 **** 0.06
7563 H 103.85680856378394 141.72252523961674 90.65689323252275 H 0.0 **** 0.06
7564 H 104.94868454154332 142.78055823767548 91.58513599079265 H 0.0 **** 0.06
7565 H 103.42523330198469 142.21596863469398 92.31241337538637 H 0.0 **** 0.06
7566 C 89.42092005910962 183.80999573796913 194.56197330319088 C 0.0 **** -0.24
7567 H 89.75166764778959 183.45246391638483 195.53758989385284 H 0.0 **** 0.06
7568 H 90.28683062104221 183.95909129284516 193.91682130573926 H 0.0 **** 0.06
7569 H 88.89064678834058 184.75406623071547 194.6824922692895 H 0.0 **** 0.06
7570 H 88.75526594243306 183.07363980272072 194.11270590456112 H 0.0 **** 0.06
7571 C 96.18735479211048 116.35927794297345 51.98716657107104 C 0.0 **** -0.24
7572 H 95.68072344652902 116.29565759232071 51.02422741918525 H 0.0 **** 0.06
7573 H 96.49439382179705 115.36227653627822 52.30329615563316 H 0.0 **** 0.06
7574 H 95.50842409837381 116.78309620870436 52.7263572424346 H 0.0 **** 0.06
7575 H 97.0666224721318 116.99726668275895 51.89232765790052 H 0.0 **** 0.06
7576 C 50.70821168022427 87.57235550175244 0.22328069279910778 C 0.0 **** -0.24
7577 H 51.44349965490548 87.6752015666408 -0.5741858855585065 H 0.0 **** 0.06
7578 H 50.672172458771215 88.49442887154646 0.8049890359478127 H 0.0 **** 0.06
7579 H 50.99015470080147 86.74347973045803 0.8725608873346573 H 0.0 **** 0.06
7580 H 49.72747071349157 87.37764136669682 -0.21007047241090504 H 0.0 **** 0.06
7581 C 61.481428687461005 154.08819618940342 56.41626489272835 C 0.0 **** -0.24
7582 H 60.4125107393661 154.02618054331427 56.212414065607334 H 0.0 **** 0.06
7583 H 61.65789774990458 154.80765611423536 57.21583900966402 H 0.0 **** 0.06
7584 H 62.004279708034574 154.4095671111287 55.51506999789473 H 0.0 **** 0.06
7585 H 61.85005066643737 153.1082502842892 56.71979503360387 H 0.0 **** 0.06
7586 C 122.0356867286431 75.34050764581575 139.90270822361404 C 0.0 **** -0.24
7587 H 121.63234576576679 75.93682265491731 140.72098455499903 H 0.0 **** 0.06
7588 H 121.26755583592166 75.20404162460518 139.1403148358418 H 0.0 **** 0.06
7589 H 122.34888205064215 74.3679081508317 140.28213093355305 H 0.0 **** 0.06
7590 H 122.89264148595527 75.85401826290607 139.46658086142105 H 0.0 **** 0.06
7591 C 189.8442722696478 127.0740226576587 133.71211668170162 C 0.0 **** -0.24
7592 H 188.96749377400693 127.67691622137215 133.95090011353 H 0.0 **** 0.06
7593 H 189.64203542775823 126.02975993406028 133.95135362990143 H 0.0 **** 0.06
7594 H 190.69544674466744 127.42368627989674 134.29635725427264 H 0.0 **** 0.06
7595 H 190.06991359354888 127.16593795985972 132.65019943947365 H 0.0 **** 0.06
7596 C 132.31820856454985 54.13616470337581 16.381038745934575 C 0.0 **** -0.24
7597 H 131.93022544808744 53.146048151247385 16.142128734919822 H 0.0 **** 0.06
7598 H 131.49559934647232 54.85108961063406 16.40794864834365 H 0.0 **** 0.06
7599 H 133.03707259962258 54.43774931879369 15.62103095568122 H 0.0 **** 0.06
7600 H 132.80753220876866 54.10868154952482 17.35447118965112 H 0.0 **** 0.06
7601 C 144.51145630580237 196.12575339843494 151.52147029907866 C 0.0 **** -0.24
7602 H 145.1156430705805 195.27518761074398 151.83853006707443 H 0.0 **** 0.06
7603 H 143.48037281765238 195.97966996601238 151.84281302208 H 0.0 **** 0.06
7604 H 144.54559233791755 196.20922311229765 150.43545869294536 H 0.0 **** 0.06
7605 H 144.90659556997102 197.03749027540564 151.96856815635812 H 0.0 **** 0.06
7606 C 131.1601821138566 126.35770681792266 187.36311582004635 C 0.0 **** -0.24
7607 H 131.5198096221913 125.55259547647461 188.00224602628327 H 0.0 **** 0.06
7608 H 130.97426149634762 127.24650743136704 187.96821641629228 H 0.0 **** 0.06
7609 H 130.23456188433533 126.0501871593394 186.8761029437179 H 0.0 **** 0.06
7610 H 131.9104472006471 126.58381921820367 186.6056224813091 H 0.0 **** 0.06
7611 C 76.10993534903427 15.607718707199297 87.08999013255982 C 0.0 **** -0.24
7612 H 76.80629373089518 14.783789193146646 86.93510683810314 H 0.0 **** 0.06
7613 H 76.38494684385266 16.150319484883653 87.99566767097468 H 0.0 **** 0.06
7614 H 75.09922169371974 15.212980458334329 87.19552833772167 H 0.0 **** 0.06
7615 H 76.14967199768142 16.282553062627414 86.23573768503036 H 0.0 **** 0.06
7616 C 196.6441827645015 79.33356513250646 60.095608845761106 C 0.0 **** -0.24
7617 H 197.58931643273246 79.70023953342707 59.695608961855285 H 0.0 **** 0.06
7618 H 196.64312333099596 79.44056373611511 61.180141394473665 H 0.0 **** 0.06
7619 H 196.52238098955758 78.28247155806395 59.83330498579842 H 0.0 **** 0.06
7620 H 195.821406449072 79.91037569210766 59.67220783780384 H 0.0 **** 0.06
7621 C 72.86174302714234 47.06333775339158 22.396212008807055 C 0.0 **** -0.24
7622 H 73.23846171592076 47.97006192207691 21.92185558699812 H 0.0 **** 0.06
7623 H 72.06244628046171 47.32317897724161 23.0921588375046 H 0.0 **** 0.06
7624 H 73.67003314561464 46.573511672937926 22.93718162925603 H 0.0 **** 0.06
7625 H 72.47305221692274 46.38883128540857 21.633275470660166 H 0.0 **** 0.06
7626 C 170.62073433555705 23.686645112035762 173.24222727210162 C 0.0 **** -0.24
7627 H 170.74983914085558 24.367928799435276 174.0833213049914 H 0.0 **** 0.06
7628 H 170.9591350973249 22.690098314251998 173.52726955525742 H 0.0 **** 0.06
7629 H 171.20621504543556 24.041366235756755 172.39443901491126 H 0.0 **** 0.06
7630 H 169.5671171372411 23.648052000829637 172.9648032942827 H 0.0 **** 0.06
7631 C 13.100489363558722 141.87493126232286 104.25598179043311 C 0.0 **** -0.24
7632 H 14.133269026521532 141.65508731393027 104.52472603448763 H 0.0 **** 0.06
7633 H 12.915188770865086 142.9437827784423 104.36491672945948 H 0.0 **** 0.06
7634 H 12.428511512334069 141.32040699488934 104.91109421532755 H 0.0 **** 0.06
7635 H 12.92399522048504 141.5789637349266 103.22077950489114 H 0.0 **** 0.06
7636 C 70.8970730760584 64.0932737644645 32.074833840875115 C 0.0 **** -0.24
7637 H 70.2036023899143 64.57812073741044 31.388345323796017 H 0.0 **** 0.06
7638 H 71.90841653369165 64.15600153723909 31.674503607129637 H 0.0 **** 0.06
7639 H 70.61761517244724 63.04611062830884 32.19335954082766 H 0.0 **** 0.06
7640 H 70.85685763613137 64.59154127022092 33.04324226958515 H 0.0 **** 0.06
7641 C 15.8468362286701 42.99650844856774 13.554474170661251 C 0.0 **** -0.24
7642 H 15.172792892017412 43.842397537368896 13.422470782489995 H 0.0 **** 0.06
7643 H 16.679270309651486 43.08244193063297 12.85541720626179 H 0.0 **** 0.06
7644 H 15.307355334215913 42.06852978345674 13.364941471505063 H 0.0 **** 0.06
7645 H 16.228235385559344 42.99183037706541 14.57616664294494 H 0.0 **** 0.06
7646 C 132.58245289527872 181.43061580189118 49.61887493100984 C 0.0 **** -0.24
7647 H 132.1878404291396 180.4343735180371 49.42155038798337 H 0.0 **** 0.06
7648 H 132.16587484818803 181.8078413840696 50.553661701829185 H 0.0 **** 0.06
7649 H 132.30698284155403 182.09886652645525 48.80270098426743 H 0.0 **** 0.06
7650 H 133.66796380065074 181.38197115022314 49.698161943835444 H 0.0 **** 0.06
7651 C 47.06252193629699 181.78503574307604 148.04181807683722 C 0.0 **** -0.24
7652 H 46.82237203528129 182.42136306523815 147.18954918458482 H 0.0 **** 0.06
7653 H 46.38228165690984 182.00678893842803 148.86336255988627 H 0.0 **** 0.06
7654 H 48.088312441344684 181.97357672216052 148.35710334728753 H 0.0 **** 0.06
7655 H 46.9581072415494 180.73910618809333 147.75385868185904 H 0.0 **** 0.06
7656 C 25.546628249847146 145.979683776099 58.781433262289596 C 0.0 **** -0.24
7657 H 25.37791375675627 146.1610809225095 57.71965871413863 H 0.0 **** 0.06
7658 H 25.996182902753375 146.86449966017045 59.2336679117937 H 0.0 **** 0.06
7659 H 26.217560079112687 145.12920820920476 58.90271588405972 H 0.0 **** 0.06
7660 H 24.59580039329134 145.7652287918116 59.26848060235554 H 0.0 **** 0.06
7661 C 136.16010469660876 178.65111531269298 148.6973141253313 C 0.0 **** -0.24
7662 H 135.42998979902802 178.4277375222837 149.4751066925517 H 0.0 **** 0.06
7663 H 137.16483427412106 178.46412843838004 149.07881787113774 H 0.0 **** 0.06
7664 H 136.07039290446687 179.69753349017796 148.4049368286316 H 0.0 **** 0.06
7665 H 135.97554858403748 178.01424918307657 147.83244925332272 H 0.0 **** 0.06
7666 C 107.42222176474729 118.82783199219224 133.8104480380716 C 0.0 **** -0.24
7667 H 107.71647438207467 118.79075773746166 134.8593739560379 H 0.0 **** 0.06
7668 H 106.37664249373711 119.12831090036684 133.73718062938198 H 0.0 **** 0.06
7669 H 107.54869650303769 117.84134067518107 133.3634875002548 H 0.0 **** 0.06
7670 H 108.04573562840827 119.54907450597972 133.28264943241842 H 0.0 **** 0.06
7671 C 114.22204533421709 118.30121849486977 43.268158117816654 C 0.0 **** -0.24
7672 H 114.41763122535716 118.40986473676162 42.200470487006186 H 0.0 **** 0.06
7673 H 115.07175764754803 118.68393189672588 43.832851045765466 H 0.0 **** 0.06
7674 H 114.07235188226699 117.24776257312146 43.50390833779588 H 0.0 **** 0.06
7675 H 113.32562128156562 118.86346946004471 43.53124264778167 H 0.0 **** 0.06
7676 C 37.72892913010355 184.85161279027784 171.83833584515727 C 0.0 **** -0.24
7677 H 38.32961673331516 185.2429869427156 172.6586725648129 H 0.0 **** 0.06
7678 H 37.89282250891506 183.7778204058006 171.74839389094325 H 0.0 **** 0.06
7679 H 38.01847766756765 185.34293193649788 170.9096691591658 H 0.0 **** 0.06
7680 H 36.67410001102121 185.04295389710063 172.037280081003 H 0.0 **** 0.06
7681 C 55.96061578594687 20.570832228645983 185.64826009755683 C 0.0 **** -0.24
7682 H 56.47323070482999 20.75575316985274 186.59211859705724 H 0.0 **** 0.06
7683 H 55.004957460972335 20.084030243737743 185.8434207519303 H 0.0 **** 0.06
7684 H 56.57645106050522 19.927345682805083 185.0211049086999 H 0.0 **** 0.06
7685 H 55.78818134108563 21.518783483906176 185.13787839917396 H 0.0 **** 0.06
7686 C 82.8632815929123 27.314840038259206 142.4306887261527 C 0.0 **** -0.24
7687 H 83.76116691151884 26.696639444550712 142.4139055565537 H 0.0 **** 0.06
7688 H 83.00993367809585 28.185051649510214 141.78950884619348 H 0.0 **** 0.06
7689 H 82.66822919506404 27.64335905280248 143.45154547509847 H 0.0 **** 0.06
7690 H 82.01600127492273 26.733936802411975 142.06780837100018 H 0.0 **** 0.06
7691 C 117.66805163914978 13.64709652799155 141.31461110501 C 0.0 **** -0.24
7692 H 118.42927189606888 12.93424897180472 141.63252111869934 H 0.0 **** 0.06
7693 H 117.03755488421712 13.189425134274273 140.55169207923868 H 0.0 **** 0.06
7694 H 118.15059252526447 14.53404279240064 140.90374335916778 H 0.0 **** 0.06
7695 H 117.05588571120649 13.930129087107616 142.16977956073205 H 0.0 **** 0.06
7696 C 38.7979530630281 127.16184090930278 24.921432688646973 C 0.0 **** -0.24
7697 H 38.91373623961539 126.62458489299632 23.980226065555883 H 0.0 **** 0.06
7698 H 39.76926332718469 127.5342137673789 25.249058293026252 H 0.0 **** 0.06
7699 H 38.39413757756904 126.48750915045568 25.67686330948851 H 0.0 **** 0.06
7700 H 38.11559050853731 127.99928539367019 24.780596850537677 H 0.0 **** 0.06
7701 C 122.42977637310946 186.63412387214174 5.803380692834736 C 0.0 **** -0.24
7702 H 121.9436441837733 187.43937804061878 6.353187820980253 H 0.0 **** 0.06
7703 H 122.24591262640644 185.68584636487296 6.308713831050028 H 0.0 **** 0.06
7704 H 123.50328666545221 186.81945569181198 5.760120284932498 H 0.0 **** 0.06
7705 H 122.02789289630638 186.5905048954778 4.79071156830264 H 0.0 **** 0.06
7706 C 82.32254771463022 174.1984168102125 97.65798245666133 C 0.0 **** -0.24
7707 H 82.50282421414005 173.1565550607109 97.39638137788131 H 0.0 **** 0.06
7708 H 82.10795163296629 174.76798497065963 96.75356202241505 H 0.0 **** 0.06
7709 H 83.20664920162298 174.60870771483965 98.14634771408976 H 0.0 **** 0.06
7710 H 81.47140505790352 174.26034456491777 98.33741152017865 H 0.0 **** 0.06
7711 C 98.33967791874377 182.89932983481594 116.1318833936574 C 0.0 **** -0.24
7712 H 97.56839436674412 183.61632804124838 116.41186896579711 H 0.0 **** 0.06
7713 H 99.29671690253411 183.21435357582777 116.54753842463217 H 0.0 **** 0.06
7714 H 98.41342920712799 182.85185874529208 115.04460699663986 H 0.0 **** 0.06
7715 H 98.07983028496702 181.9150828199068 116.52184840265787 H 0.0 **** 0.06
7716 C 114.54076828108461 125.30127758311448 168.29070077352463 C 0.0 **** -0.24
7717 H 114.51483306278982 126.2112196480852 167.69175797993188 H 0.0 **** 0.06
7718 H 115.52055033952101 125.20166788128802 168.7583541903281 H 0.0 **** 0.06
7719 H 114.35539374289644 124.43902365071585 167.64898031065798 H 0.0 **** 0.06
7720 H 113.77260914009548 125.35174402779052 169.06176518973768 H 0.0 **** 0.06
7721 C 32.34074344390052 103.19664063935846 78.97845840963487 C 0.0 **** -0.24
7722 H 31.326986304231923 103.3874694231069 78.62775697256211 H 0.0 **** 0.06
7723 H 32.31499133243261 102.92443103235618 80.03400161523894 H 0.0 **** 0.06
7724 H 32.94441544480111 104.09493435326237 78.84885824679998 H 0.0 **** 0.06
7725 H 32.77658069413644 102.3797277487084 78.40321680393816 H 0.0 **** 0.06
7726 C 101.35274862424819 195.8020972984969 22.730441395235033 C 0.0 **** -0.24
7727 H 102.13207934632266 195.13829422094437 22.35693266819831 H 0.0 **** 0.06
7728 H 101.65572718325473 196.21181266497382 23.69434855271153 H 0.0 **** 0.06
7729 H 100.4248606861789 195.24330574933055 22.848316922973893 H 0.0 **** 0.06
7730 H 101.19875774000027 196.6157424442052 22.021059209670682 H 0.0 **** 0.06
7731 C 29.494779763196533 190.34757879517443 198.9865110150218 C 0.0 **** -0.24
7732 H 29.777901388984645 190.25051241347532 197.93932817370037 H 0.0 **** 0.06
7733 H 30.264818521542452 190.90528345900861 199.51998689214895 H 0.0 **** 0.06
7734 H 29.39152064120202 189.3568514936137 199.42874132021961 H 0.0 **** 0.06
7735 H 28.545514362615734 190.87883920935386 199.05909382918776 H 0.0 **** 0.06
7736 C 43.43468181903731 123.77052244174513 153.25898636635245 C 0.0 **** -0.24
7737 H 43.91661095244916 124.34637330231499 152.4689846093493 H 0.0 **** 0.06
7738 H 42.91673254221439 122.91730301156053 152.821652603364 H 0.0 **** 0.06
7739 H 42.71742838700777 124.40272178646251 153.78297224193904 H 0.0 **** 0.06
7740 H 44.18966677353444 123.41709525432043 153.9612866047084 H 0.0 **** 0.06
7741 C 13.644642473906195 93.50124375399164 146.41602931839162 C 0.0 **** -0.24
7742 H 13.42020578482775 93.28297211689465 147.46024019441495 H 0.0 **** 0.06
7743 H 14.678431240799611 93.2261350177096 146.20140708721934 H 0.0 **** 0.06
7744 H 13.506248980889772 94.566513715031 146.22939371539098 H 0.0 **** 0.06
7745 H 12.975622898610204 92.92891465479909 145.77285911708705 H 0.0 **** 0.06
7746 C 52.20815109635623 178.15016534628623 141.81601902781188 C 0.0 **** -0.24
7747 H 53.141084204290735 178.61740285629963 142.13300424898463 H 0.0 **** 0.06
7748 H 51.77073096744306 178.72715513148188 141.00139390183912 H 0.0 **** 0.06
7749 H 51.513849853051056 178.12007427297533 142.65474184062265 H 0.0 **** 0.06
7750 H 52.40957917425948 177.13460918773765 141.4748121903213 H 0.0 **** 0.06
7751 C 166.87306696059557 27.949852720341198 137.22320385219268 C 0.0 **** -0.24
7752 H 166.2335882473264 28.52342690447881 136.55216710562388 H 0.0 **** 0.06
7753 H 166.35482085731365 27.040438644935506 137.5287749852223 H 0.0 **** 0.06
7754 H 167.10656647703118 28.549520873051506 138.1024533875127 H 0.0 **** 0.06
7755 H 167.795565323201 27.685742851054442 136.7071976440235 H 0.0 **** 0.06
7756 C 118.02805977465255 11.732214929040424 147.96843236081756 C 0.0 **** -0.24
7757 H 118.5839757019088 10.96466709730376 148.50869852898686 H 0.0 **** 0.06
7758 H 117.17288298931476 12.048307365777589 148.56544903584725 H 0.0 **** 0.06
7759 H 117.6800320156924 11.327365930626456 147.01903486102145 H 0.0 **** 0.06
7760 H 118.67846518454871 12.58765569521924 147.783292948842 H 0.0 **** 0.06
7761 C 57.11920371851386 151.17486251901184 9.12260401952954 C 0.0 **** -0.24
7762 H 57.020849810597724 150.13858961461986 9.44509223088825 H 0.0 **** 0.06
7763 H 57.365902233280394 151.20372509971472 8.061072820703195 H 0.0 **** 0.06
7764 H 57.91126890090601 151.66000534792715 9.693038823216796 H 0.0 **** 0.06
7765 H 56.178099011255256 151.6978471288462 9.291158756534678 H 0.0 **** 0.06
7766 C 92.51578087699244 155.19981428201848 47.368632702377994 C 0.0 **** -0.24
7767 H 93.46905538178694 155.67536042859652 47.13615414196073 H 0.0 **** 0.06
7768 H 92.64315562152046 154.5277106123653 48.216682225186815 H 0.0 **** 0.06
7769 H 92.17272207303523 154.6321627049998 46.50231978173122 H 0.0 **** 0.06
7770 H 91.7799340647345 155.96453773789716 47.616104265497086 H 0.0 **** 0.06
7771 C 124.77285706105229 60.634185318067125 150.60808170216495 C 0.0 **** -0.24
7772 H 125.60019713124797 60.41652330424017 149.93198455145256 H 0.0 **** 0.06
7773 H 123.91387291100884 60.01881742078814 150.33975303692273 H 0.0 **** 0.06
7774 H 124.50589415623134 61.68720358138995 150.52794436321517 H 0.0 **** 0.06
7775 H 125.07347398457591 60.41206037743825 151.63201610409 H 0.0 **** 0.06
7776 C 134.02245919681286 89.59177442748049 9.059289904377785 C 0.0 **** -0.24
7777 H 134.18947835088545 90.41125687059821 9.757880482889782 H 0.0 **** 0.06
7778 H 133.31950513541307 88.88099452003993 9.494378636727397 H 0.0 **** 0.06
7779 H 134.9691482448938 89.08953255271211 8.855749572805728 H 0.0 **** 0.06
7780 H 133.61342015475907 89.98548272574098 8.128977852563189 H 0.0 **** 0.06
7781 C 52.68109330002501 75.36587897112929 53.07052411883011 C 0.0 **** -0.24
7782 H 53.65430041542355 75.67768337439276 52.69426282670777 H 0.0 **** 0.06
7783 H 52.81585672639349 74.7490567542959 53.95940480140142 H 0.0 **** 0.06
7784 H 52.16279425869533 74.7890155813983 52.30370246800115 H 0.0 **** 0.06
7785 H 52.09009579155749 76.24641360803378 53.32407174334911 H 0.0 **** 0.06
7786 C 67.80359071423447 44.00539164728336 20.28930603222021 C 0.0 **** -0.24
7787 H 68.14559172308077 44.71792571614375 19.538939998403734 H 0.0 **** 0.06
7788 H 67.17921992651935 43.24799135496579 19.81341776884426 H 0.0 **** 0.06
7789 H 67.22344806422058 44.53008952790857 21.04910491683964 H 0.0 **** 0.06
7790 H 68.66450748410915 43.5262320420088 20.755713659514257 H 0.0 **** 0.06
7791 C 143.3337891925911 171.20200109671504 171.4598199296413 C 0.0 **** -0.24
7792 H 143.3725951003313 170.11576698393816 171.38893128404627 H 0.0 **** 0.06
7793 H 142.32627591576642 171.54594140577348 171.225824750634 H 0.0 **** 0.06
7794 H 144.03947791862356 171.6378633920022 170.753443869244 H 0.0 **** 0.06
7795 H 143.59715788706313 171.50900746058758 172.47232361866833 H 0.0 **** 0.06
7796 C 91.88042826480088 58.72610943404236 65.23449381906289 C 0.0 **** -0.24
7797 H 90.8072211287373 58.631226662412374 65.39598486568343 H 0.0 **** 0.06
7798 H 92.18492296046935 58.06551191821781 64.42132186097422 H 0.0 **** 0.06
7799 H 92.41065180627092 58.44942913645099 66.14523125123009 H 0.0 **** 0.06
7800 H 92.1189769394449 59.7568244899894 64.97405637151758 H 0.0 **** 0.06
7801 C 118.17644233646007 73.58055398750497 189.53804841082516 C 0.0 **** -0.24
7802 H 119.03133572429007 73.75402181913444 188.88443545955712 H 0.0 **** 0.06
7803 H 117.88178274051413 72.53196096191533 189.4798409597095 H 0.0 **** 0.06
7804 H 117.34507480456614 74.21100031739286 189.22379991216414 H 0.0 **** 0.06
7805 H 118.45060960045879 73.82440575515972 190.5651727177199 H 0.0 **** 0.06
7806 C 32.99864604815909 105.74835775155105 179.00584379119496 C 0.0 **** -0.24
7807 H 33.34737593499305 104.71674770908899 178.96696124680992 H 0.0 **** 0.06
7808 H 33.855372049434806 106.42209488540587 178.98641393394934 H 0.0 **** 0.06
7809 H 32.43310668747958 105.9058479691387 179.9249600915341 H 0.0 **** 0.06
7810 H 32.35904959649905 105.94895950487364 178.14672797662507 H 0.0 **** 0.06
7811 C 19.12275095781513 91.35796439340251 112.3810434936675 C 0.0 **** -0.24
7812 H 19.574017082383847 91.5081280970414 113.36241266713262 H 0.0 **** 0.06
7813 H 19.319692656921035 92.2284771915181 111.75441988869636 H 0.0 **** 0.06
7814 H 18.04609361171447 91.22750572119281 112.49260149755679 H 0.0 **** 0.06
7815 H 19.550284753833864 90.47079850393823 111.9164273417739 H 0.0 **** 0.06
7816 C 139.88708156988912 90.03926622652386 138.47570756327252 C 0.0 **** -0.24
7817 H 139.37154231923378 89.20371790760271 138.00113197115957 H 0.0 **** 0.06
7818 H 140.23977156443456 89.7357044567359 139.4606982600322 H 0.0 **** 0.06
7819 H 139.19896184144497 90.87854874811092 138.5777211659213 H 0.0 **** 0.06
7820 H 140.73587167295557 90.33846503077518 137.86030271160055 H 0.0 **** 0.06
7821 C 119.74675647806865 124.99121555616657 91.32828929992937 C 0.0 **** -0.24
7822 H 119.39422276274416 123.96776827737492 91.45656373651417 H 0.0 **** 0.06
7823 H 119.40428497314079 125.60068350416913 92.1645588561286 H 0.0 **** 0.06
7824 H 119.3514557126212 125.39644196201493 90.3967902132631 H 0.0 **** 0.06
7825 H 120.8356767255423 124.9984105767929 91.29395878367771 H 0.0 **** 0.06
7826 C 108.95050068338071 58.69017020183492 34.07446800880615 C 0.0 **** -0.24
7827 H 109.2341143325994 58.876600528003564 35.109736905964326 H 0.0 **** 0.06
7828 H 109.83936726053955 58.71810522464128 33.44310238195152 H 0.0 **** 0.06
7829 H 108.24753843969754 59.455966485869396 33.746956463217515 H 0.0 **** 0.06
7830 H 108.4799995135948 57.709352468227195 33.99729980589987 H 0.0 **** 0.06
7831 C 78.76597398951913 80.14328421956014 20.610124526031996 C 0.0 **** -0.24
7832 H 78.21586655355168 79.20485167790241 20.67048039036007 H 0.0 **** 0.06
7833 H 79.59188624568668 80.03543358567853 19.907150227342186 H 0.0 **** 0.06
7834 H 79.15727363613291 80.39946753154626 21.594917595416803 H 0.0 **** 0.06
7835 H 78.09837292443251 80.93470516002665 20.267859396930135 H 0.0 **** 0.06
7836 C 32.43448665933016 65.17047453629738 40.07314163302243 C 0.0 **** -0.24
7837 H 31.83825293652393 65.28432847696075 40.97908000490722 H 0.0 **** 0.06
7838 H 33.45410770055511 65.50387139593539 40.26526435353006 H 0.0 **** 0.06
7839 H 31.999862049527508 65.77064861144697 39.27422349281966 H 0.0 **** 0.06
7840 H 32.44444231371432 64.12147152913116 39.77492981722099 H 0.0 **** 0.06
7841 C 183.87237033586052 147.26256433614006 140.38237522548943 C 0.0 **** -0.24
7842 H 183.78661546995545 146.19594544347066 140.17671310854885 H 0.0 **** 0.06
7843 H 184.6768129826422 147.43018129024472 141.09864840711217 H 0.0 **** 0.06
7844 H 182.93347873380992 147.62938152960828 140.79690433699156 H 0.0 **** 0.06
7845 H 184.09234910653876 147.79380428447777 139.45699686245484 H 0.0 **** 0.06
7846 C 193.57838820269964 18.854232084561318 49.412874614632216 C 0.0 **** -0.24
7847 H 193.77133596407364 19.613272330322957 48.65504894886102 H 0.0 **** 0.06
7848 H 192.59859751386344 19.02753198347517 49.85840019457021 H 0.0 **** 0.06
7849 H 194.34399071432483 18.910876570599385 50.186826088712024 H 0.0 **** 0.06
7850 H 193.5996712957393 17.867391723113343 48.95240661882876 H 0.0 **** 0.06
7851 C 146.4399460836602 174.4254184594907 58.50420414496773 C 0.0 **** -0.24
7852 H 146.95167165255458 173.48992802061312 58.729344666447105 H 0.0 **** 0.06
7853 H 146.6801434342064 175.16380660637896 59.26910143023656 H 0.0 **** 0.06
7854 H 145.3636578784457 174.25606318391766 58.486621289139634 H 0.0 **** 0.06
7855 H 146.7657781483761 174.7917160005798 57.53006899788454 H 0.0 **** 0.06
7856 C 157.41913229111654 11.508606811515627 61.76078917970028 C 0.0 **** -0.24
7857 H 157.7610737188209 11.014338184252075 60.85245101162707 H 0.0 **** 0.06
7858 H 157.23169261943468 10.760888038643323 62.53234003278148 H 0.0 **** 0.06
7859 H 156.49950584157088 12.055123945253548 61.55345880917369 H 0.0 **** 0.06
7860 H 158.18441445162944 12.203148687279743 62.10667134288818 H 0.0 **** 0.06
7861 C 92.96640624884856 26.100844955112663 138.9294651758704 C 0.0 **** -0.24
7862 H 93.46303371764341 26.740280701168373 138.1989976626977 H 0.0 **** 0.06
7863 H 93.52593808190593 25.17196216816683 139.04026490436038 H 0.0 **** 0.06
7864 H 91.95502162303183 25.878730027694644 138.58832328306502 H 0.0 **** 0.06
7865 H 92.9213584661506 26.6154523725137 139.88946808899345 H 0.0 **** 0.06
7866 C 139.3242966903066 70.04734602297845 44.394689910958775 C 0.0 **** -0.24
7867 H 138.7377836511662 69.38087692311103 45.02702532396543 H 0.0 **** 0.06
7868 H 140.31788707575208 70.17493190482497 44.825838028022574 H 0.0 **** 0.06
7869 H 138.82886590744332 71.01598006424416 44.32994339473572 H 0.0 **** 0.06
7870 H 139.41294076894016 69.61659914399559 43.396913856727664 H 0.0 **** 0.06
7871 C 105.86849966272052 164.46838955156514 190.7727643521565 C 0.0 **** -0.24
7872 H 105.90590330370298 163.84267515277833 191.66493426761033 H 0.0 **** 0.06
7873 H 105.03327306683832 165.16384495240578 190.85174528835162 H 0.0 **** 0.06
7874 H 105.73465561660078 163.83767047864987 189.8928217709826 H 0.0 **** 0.06
7875 H 106.80026210838321 165.02606052925063 190.6813231378479 H 0.0 **** 0.06
7876 C 26.551101551985653 158.91313231082876 129.26194581092395 C 0.0 **** -0.24
7877 H 27.147944933080623 159.48112143296547 128.54858684831515 H 0.0 **** 0.06
7878 H 25.92719884958302 158.19779665299245 128.72540595897433 H 0.0 **** 0.06
7879 H 25.917214726901307 159.5953008975747 129.82896010253012 H 0.0 **** 0.06
7880 H 27.211804708061493 158.37967443488287 129.94511322119453 H 0.0 **** 0.06
7881 C 157.61405618539777 82.41348294783853 109.16825534717998 C 0.0 **** -0.24
7882 H 156.98563632161233 81.53739528031713 109.00747114376213 H 0.0 **** 0.06
7883 H 156.9846424094475 83.29836725715472 109.26725413069539 H 0.0 **** 0.06
7884 H 158.28633528449785 82.53766751016735 108.31925670677981 H 0.0 **** 0.06
7885 H 158.19884963369336 82.27849854552619 110.07785278826543 H 0.0 **** 0.06
7886 C 27.13984724907536 173.28030419249302 164.1755919073111 C 0.0 **** -0.24
7887 H 28.073712551470408 173.0961049666605 164.70814796818232 H 0.0 **** 0.06
7888 H 26.324300769915396 173.37147663379093 164.89409259801266 H 0.0 **** 0.06
7889 H 26.938556580264787 172.4495138927289 163.5000778778123 H 0.0 **** 0.06
7890 H 27.225167891009335 174.20343984274263 163.60228950688486 H 0.0 **** 0.06
7891 C 175.89453694297026 63.93296438417724 123.5058773109501 C 0.0 **** -0.24
7892 H 176.6597304405811 64.70211602592224 123.39643615342362 H 0.0 **** 0.06
7893 H 174.90998226331325 64.37637697870349 123.36063264303334 H 0.0 **** 0.06
7894 H 175.95578722669046 63.499975806920816 124.50395694791723 H 0.0 **** 0.06
7895 H 176.05562893857788 63.15256095207343 122.76182923122616 H 0.0 **** 0.06
7896 C 173.0874185769635 145.198969174666 125.36999403182551 C 0.0 **** -0.24
7897 H 173.5557224525404 145.07844947877587 126.34652675081216 H 0.0 **** 0.06
7898 H 172.19928127270333 144.56894473051176 125.31289736090062 H 0.0 **** 0.06
7899 H 173.7909884171092 144.90744021385993 124.59068984836458 H 0.0 **** 0.06
7900 H 172.80160904787706 146.2418708329493 125.22998780153546 H 0.0 **** 0.06
7901 C 118.89011721165457 7.008474604204679 171.25716860420636 C 0.0 **** -0.24
7902 H 119.459626389721 7.394063058175647 170.41159925723838 H 0.0 **** 0.06
7903 H 117.84926437720699 7.31777142874725 171.16521469971124 H 0.0 **** 0.06
7904 H 119.305742722096 7.4003990937868025 172.18517253724332 H 0.0 **** 0.06
7905 H 118.9456720399213 5.919261310373628 171.26490002276708 H 0.0 **** 0.06
7906 C 61.24312384704211 50.529055045252306 153.71243113922216 C 0.0 **** -0.24
7907 H 62.23899307719455 50.18316070579739 153.43649409469396 H 0.0 **** 0.06
7908 H 60.986695718475346 50.14386061049545 154.70005939708034 H 0.0 **** 0.06
7909 H 60.51817804408279 50.169710459990824 152.98283213284952 H 0.0 **** 0.06
7910 H 61.22869044083603 51.618708268251055 153.7326600712332 H 0.0 **** 0.06
7911 C 78.08170560525042 87.35412110630091 112.71661636376268 C 0.0 **** -0.24
7912 H 78.7318361199979 86.54128190529997 113.0387520631702 H 0.0 **** 0.06
7913 H 77.06755131650159 87.16995769583437 113.07001356546164 H 0.0 **** 0.06
7914 H 78.08319544759759 87.4108289884644 111.62782129968076 H 0.0 **** 0.06
7915 H 78.44551845961391 88.29598156508777 113.12892303944147 H 0.0 **** 0.06
7916 C 69.71197407549141 39.73851463689144 63.78576630672637 C 0.0 **** -0.24
7917 H 68.99694484341182 40.13914152031748 63.06735001006405 H 0.0 **** 0.06
7918 H 69.31089605265919 38.82633648513303 64.22793610311288 H 0.0 **** 0.06
7919 H 69.8907083083518 40.47476095018652 64.56959098650213 H 0.0 **** 0.06
7920 H 70.64996856757148 39.514376366993076 63.277046277952195 H 0.0 **** 0.06
7921 C 25.871060360686386 34.762229091104984 196.86411756354556 C 0.0 **** -0.24
7922 H 25.763477004572337 35.83859654583546 196.99717995753844 H 0.0 **** 0.06
7923 H 25.440622343715916 34.470226086396394 195.90619113500622 H 0.0 **** 0.06
7924 H 25.352339390345094 34.24241986278372 197.67011856906072 H 0.0 **** 0.06
7925 H 26.928614535882076 34.49750923356231 196.88354081202834 H 0.0 **** 0.06
7926 C 114.58633760540482 126.76678600041487 98.43642358512545 C 0.0 **** -0.24
7927 H 113.56694284541373 126.76158785693119 98.82193231215808 H 0.0 **** 0.06
7928 H 115.28478414568846 126.5808105822455 99.25228953946174 H 0.0 **** 0.06
7929 H 114.79989444054951 127.73648843076975 97.98734636882682 H 0.0 **** 0.06
7930 H 114.69282964642682 125.98624653425284 97.68208924165913 H 0.0 **** 0.06
7931 C 186.48125692251887 64.31897630651747 145.55032973123386 C 0.0 **** -0.24
7932 H 185.48006041817462 64.70922414817068 145.73667052760763 H 0.0 **** 0.06
7933 H 187.02842327167318 64.26176977425638 146.4920893147712 H 0.0 **** 0.06
7934 H 187.00738536801987 64.98079743500284 144.86340083787928 H 0.0 **** 0.06
7935 H 186.4070963093023 63.32427415189477 145.11155017897383 H 0.0 **** 0.06
7936 C 159.54668263230812 3.919290435251554 187.08026457762242 C 0.0 **** -0.24
7937 H 158.82275449586564 4.548990806367186 187.59681483020455 H 0.0 **** 0.06
7938 H 159.71997624737287 3.0137667956331597 187.66018517968715 H 0.0 **** 0.06
7939 H 160.48418745048258 4.463539891451774 186.96634825918935 H 0.0 **** 0.06
7940 H 159.1591614934994 3.653441749774885 186.09631968838565 H 0.0 **** 0.06
7941 C 7.808595630395665 164.04687365902493 106.09905512380078 C 0.0 **** -0.24
7942 H 8.609164145669148 164.64348673385774 106.53689936964957 H 0.0 **** 0.06
7943 H 7.990684468684613 162.99140125342262 106.30075126425572 H 0.0 **** 0.06
7944 H 7.781437070268851 164.21104230875133 105.02199535679256 H 0.0 **** 0.06
7945 H 6.854791013861572 164.34192192727969 106.53661878613445 H 0.0 **** 0.06
7946 C 56.774819338042334 76.52582014812974 180.20503697480842 C 0.0 **** -0.24
7947 H 57.24519776343942 75.56410650227004 180.00084178129106 H 0.0 **** 0.06
7948 H 57.41079117158077 77.3278907704719 179.82938521703045 H 0.0 **** 0.06
7949 H 56.64010072283861 76.64269558327592 181.28081703203804 H 0.0 **** 0.06
7950 H 55.80464517225013 76.56766080944382 179.71052396477563 H 0.0 **** 0.06
7951 C 7.825807638371877 190.8968595095563 4.247626833133353 C 0.0 **** -0.24
7952 H 7.412164732967405 191.90266160209978 4.323537230260712 H 0.0 **** 0.06
7953 H 8.362926869292913 190.79663621479781 3.304815669184052 H 0.0 **** 0.06
7954 H 7.016416926938852 190.16823485498418 4.2852360955482425 H 0.0 **** 0.06
7955 H 8.510460886368492 190.72164080272373 5.077549130533839 H 0.0 **** 0.06
7956 C 119.52486849321173 78.82385496031907 117.18729975275528 C 0.0 **** -0.24
7957 H 119.09741519435218 79.82648170710297 117.21213877219841 H 0.0 **** 0.06
7958 H 119.94517031328832 78.5827407279312 118.16384365670999 H 0.0 **** 0.06
7959 H 120.31177132539193 78.78404608564858 116.43312808768746 H 0.0 **** 0.06
7960 H 118.7464412497774 78.10282687187214 116.9372973334761 H 0.0 **** 0.06
7961 C 34.54496908969408 14.84952786187202 169.63355543485795 C 0.0 **** -0.24
7962 H 33.9563772966528 15.259620730570944 168.81344922049473 H 0.0 **** 0.06
7963 H 33.92297661872168 14.77869789742077 170.5265499427244 H 0.0 **** 0.06
7964 H 35.394350452863264 15.50258587857995 169.83287728400555 H 0.0 **** 0.06
7965 H 34.9045638949726 13.857419243972863 169.3625153531157 H 0.0 **** 0.06
7966 C 82.86099862124377 48.722186673581845 60.60891065795519 C 0.0 **** -0.24
7967 H 82.60074036840552 49.474863669691146 61.35299375793879 H 0.0 **** 0.06
7968 H 82.53457081508094 47.74104831275312 60.955955495957454 H 0.0 **** 0.06
7969 H 83.9400575693956 48.71570154527548 60.46136618906546 H 0.0 **** 0.06
7970 H 82.36627703343095 48.957184511980955 59.66602080831278 H 0.0 **** 0.06
7971 C 155.65589252023753 58.052609154381514 143.27596189890326 C 0.0 **** -0.24
7972 H 156.10519058800273 57.121372659123324 143.6229684527308 H 0.0 **** 0.06
7973 H 154.6158103570216 58.095874902300096 143.59908548216453 H 0.0 **** 0.06
7974 H 155.7001719041731 58.0920524049711 142.18672258240446 H 0.0 **** 0.06
7975 H 156.20269318485487 58.896975929870734 143.69317337857302 H 0.0 **** 0.06
7976 C 12.364572143677094 145.45545025207227 121.35103579107258 C 0.0 **** -0.24
7977 H 11.996312261793832 144.9560727237376 122.24724303698193 H 0.0 **** 0.06
7978 H 13.359587727218354 145.85750508720497 121.54190113908359 H 0.0 **** 0.06
7979 H 11.687810065319013 146.26894947182745 121.08593235168371 H 0.0 **** 0.06
7980 H 12.412095223345148 144.74026643074583 120.52998747589541 H 0.0 **** 0.06
7981 C 36.972365895596184 3.695162151601096 73.73177648718485 C 0.0 **** -0.24
7982 H 36.95357798550225 3.5740607432510387 74.81454383549402 H 0.0 **** 0.06
7983 H 37.502497745405776 2.8555103913689663 73.2817088958268 H 0.0 **** 0.06
7984 H 37.48167874755805 4.624815190204998 73.47900719125073 H 0.0 **** 0.06
7985 H 35.9508412907994 3.7255349161344498 73.35099874632442 H 0.0 **** 0.06
7986 C 14.849278728047693 87.90994259524052 12.111314374980623 C 0.0 **** -0.24
7987 H 14.071840798562704 87.88872792561642 11.34846192669496 H 0.0 **** 0.06
7988 H 14.998216161847296 86.90424810096096 12.507248657780046 H 0.0 **** 0.06
7989 H 14.548091983297525 88.57687806289368 12.918581548556375 H 0.0 **** 0.06
7990 H 15.78002228687268 88.26774056039335 11.671353329972398 H 0.0 **** 0.06
7991 C 48.491193878005106 195.88747570942047 128.30135159901727 C 0.0 **** -0.24
7992 H 49.33399165450646 196.20270548703652 128.9173311435801 H 0.0 **** 0.06
7993 H 47.63658853835284 196.53590950092712 128.49605657405337 H 0.0 **** 0.06
7994 H 48.229408450676715 194.8579557716961 128.54412259111493 H 0.0 **** 0.06
7995 H 48.76634296035911 195.9539864294973 127.24936254915394 H 0.0 **** 0.06
7996 C 146.33038553377838 81.07750592291893 122.00503168391057 C 0.0 **** -0.24
7997 H 145.70074441824826 81.96756483164279 122.01264089695806 H 0.0 **** 0.06
7998 H 147.35151260118067 81.35376920093722 122.2705591336474 H 0.0 **** 0.06
7999 H 146.32087412917966 80.63398316485234 121.00966503446767 H 0.0 **** 0.06
8000 H 145.94879410044982 80.35784686932129 122.72899128008959 H 0.0 **** 0.06
8001 C 46.42119285944379 95.19765264183621 16.554807392770115 C 0.0 **** -0.24
8002 H 46.287002758880504 95.06254727920512 15.481489991497043 H 0.0 **** 0.06
8003 H 46.93058774283108 96.14415872809423 16.739871695892674 H 0.0 **** 0.06
8004 H 47.02019639834458 94.37882800182217 16.95185100010741 H 0.0 **** 0.06
8005 H 45.447559292744444 95.20799304169466 17.044238108661588 H 0.0 **** 0.06
8006 C 151.07157930868047 156.9753447797796 59.82192108667856 C 0.0 **** -0.24
8007 H 151.98308678853581 157.54628420011284 60.0015150614355 H 0.0 **** 0.06
8008 H 150.8578534400291 156.9588108611701 58.753399886129955 H 0.0 **** 0.06
8009 H 150.24197067106866 157.44222821306462 60.35238318716239 H 0.0 **** 0.06
8010 H 151.20611179113715 155.95585385888634 60.18224307909067 H 0.0 **** 0.06
8011 C 130.24248939701863 156.87207904256525 114.55181694878291 C 0.0 **** -0.24
8012 H 130.03187142972223 156.42026638558758 115.52057133092302 H 0.0 **** 0.06
8013 H 130.4185168326611 156.088424638826 113.8158109897802 H 0.0 **** 0.06
8014 H 131.1275898092141 157.50304760628222 114.6308587549498 H 0.0 **** 0.06
8015 H 129.3911334461714 157.4785710634102 114.24058361785356 H 0.0 **** 0.06
8016 C 9.842893738163866 2.348536612183807 123.76974845560233 C 0.0 **** -0.24
8017 H 10.494851002197805 1.96381293000087 122.9854467926778 H 0.0 **** 0.06
8018 H 9.806970535921522 1.6361460848931983 124.59378300371344 H 0.0 **** 0.06
8019 H 8.839735406763651 2.4933221624391706 123.36952205059833 H 0.0 **** 0.06
8020 H 10.231155501368534 3.3016465454074364 124.12919517835365 H 0.0 **** 0.06
8021 C 9.112684718985747 46.780787889111224 111.96716688504745 C 0.0 **** -0.24
8022 H 8.10061597193345 47.15844200278934 112.11608943274507 H 0.0 **** 0.06
8023 H 9.200529863459849 45.78940105471514 112.41250616534842 H 0.0 **** 0.06
8024 H 9.825829675741659 47.455709704966125 112.44095112445567 H 0.0 **** 0.06
8025 H 9.32448388443845 46.71971643987666 110.89980421541685 H 0.0 **** 0.06
8026 C 74.17132519079837 157.10854508642186 195.2363029652607 C 0.0 **** -0.24
8027 H 73.13721836933458 157.16159761471874 195.57659723642678 H 0.0 **** 0.06
8028 H 74.72633697674794 156.41284023208317 195.8663453247705 H 0.0 **** 0.06
8029 H 74.62591630622218 158.09750932207453 195.29864357200722 H 0.0 **** 0.06
8030 H 74.1957306591938 156.76278757949797 194.20279930994099 H 0.0 **** 0.06
8031 C 170.90324077334 151.7581767797522 49.94969208072183 C 0.0 **** -0.24
8032 H 171.39006528625373 152.72333301561054 49.80615449501008 H 0.0 **** 0.06
8033 H 171.36265427915134 151.01930970724166 49.29281281461141 H 0.0 **** 0.06
8034 H 169.84322721282675 151.84837820893253 49.71317859818524 H 0.0 **** 0.06
8035 H 171.01851018754897 151.444216825515 50.98722607854708 H 0.0 **** 0.06
8036 C 14.208982707797965 102.76936743644217 31.7282126952324 C 0.0 **** -0.24
8037 H 15.078868633220651 103.42592507009988 31.7437120749467 H 0.0 **** 0.06
8038 H 14.52537110689498 101.74323554010073 31.91843734931399 H 0.0 **** 0.06
8039 H 13.728286801591878 102.82711629564653 30.751567314183944 H 0.0 **** 0.06
8040 H 13.504203927298938 103.08078969726967 32.49868898407982 H 0.0 **** 0.06
8041 C 68.79687883631829 50.07708208850738 153.4807312104684 C 0.0 **** -0.24
8042 H 68.36887902548779 50.49345544205144 154.39235232910562 H 0.0 **** 0.06
8043 H 69.65206798719282 50.678200658128205 153.17377089024674 H 0.0 **** 0.06
8044 H 68.04552458131303 50.08165802693917 152.690884052267 H 0.0 **** 0.06
8045 H 69.12089580632642 49.05277577188279 153.66690121708046 H 0.0 **** 0.06
8046 C 126.07438444436497 24.87071209834241 119.75313086051437 C 0.0 **** -0.24
8047 H 127.10120193962462 25.23763549504781 119.74533630142903 H 0.0 **** 0.06
8048 H 125.43076556517138 25.58411794724107 119.2387608494823 H 0.0 **** 0.06
8049 H 125.73865066121209 24.754982191079407 120.7845183415213 H 0.0 **** 0.06
8050 H 126.02944698178567 23.907195745152478 119.24576261405332 H 0.0 **** 0.06
8051 C 84.11532953137316 132.5454018347783 27.20645600066905 C 0.0 **** -0.24
8052 H 84.0918853166304 132.23758773235406 26.16093816913269 H 0.0 **** 0.06
8053 H 84.84228351547438 131.9393246521622 27.74662544134776 H 0.0 **** 0.06
8054 H 83.12802024620623 132.4099113577662 27.647256833404413 H 0.0 **** 0.06
8055 H 84.39962780369103 133.5960719503418 27.269245293948018 H 0.0 **** 0.06
8056 C 178.82829933893623 61.41986593414413 10.06186526042029 C 0.0 **** -0.24
8057 H 177.79422839179648 61.67741168398766 9.833061539315217 H 0.0 **** 0.06
8058 H 179.4608273915621 61.66754834402309 9.20903914518319 H 0.0 **** 0.06
8059 H 178.89887233058437 60.35270990589072 10.269499845391785 H 0.0 **** 0.06
8060 H 179.15804550702958 61.982390043248586 10.93478951448192 H 0.0 **** 0.06
8061 C 66.52328157345971 63.806726160914764 193.64208119763703 C 0.0 **** -0.24
8062 H 66.73347961425776 63.032751788709334 192.904257284788 H 0.0 **** 0.06
8063 H 65.54501950351289 64.24389342451673 193.44075608698867 H 0.0 **** 0.06
8064 H 67.28739265263357 64.58157936061485 193.58373352810668 H 0.0 **** 0.06
8065 H 66.52715711245503 63.36785949741329 194.64014418571628 H 0.0 **** 0.06
8066 C 189.7968671678034 132.3388807223078 140.887546166014 C 0.0 **** -0.24
8067 H 189.21711204170919 133.01020296425594 140.25354132564794 H 0.0 **** 0.06
8068 H 190.18893692755896 132.89461078160622 141.74023844358305 H 0.0 **** 0.06
8069 H 190.62379665762964 131.9218021985706 140.31358816527694 H 0.0 **** 0.06
8070 H 189.15684457142567 131.5318012771317 141.24268628854867 H 0.0 **** 0.06
8071 C 98.91517889546571 187.38989975188844 52.53966101933884 C 0.0 **** -0.24
8072 H 99.35937039813882 187.3221273710477 53.53184621242937 H 0.0 **** 0.06
8073 H 99.50729255420907 186.80475972337845 51.8353320725048 H 0.0 **** 0.06
8074 H 98.89555719876887 188.43154514905382 52.22114491123287 H 0.0 **** 0.06
8075 H 97.89796244330313 187.00040585008784 52.57069095673219 H 0.0 **** 0.06
8076 C 138.21383142406992 50.66451895512108 32.65860856033402 C 0.0 **** -0.24
8077 H 138.62554651304828 49.65505573310895 32.659783474405515 H 0.0 **** 0.06
8078 H 138.90930389325834 51.34022690115799 33.15589468200437 H 0.0 **** 0.06
8079 H 137.26136040525924 50.667667136172554 33.18982297812002 H 0.0 **** 0.06
8080 H 138.05862413550878 50.992446526869514 31.630825078939836 H 0.0 **** 0.06
8081 C 143.46201883102466 104.66440860348573 80.89282499493794 C 0.0 **** -0.24
8082 H 142.52328781978682 104.23853078417324 81.24769801868302 H 0.0 **** 0.06
8083 H 143.31053092275766 105.11034074996573 79.9105177176092 H 0.0 **** 0.06
8084 H 144.21425675540416 103.87829155020566 80.82365290996563 H 0.0 **** 0.06
8085 H 143.80059018762984 105.42995556744796 81.59175202141509 H 0.0 **** 0.06
8086 C 64.00452551600159 107.52708200890194 43.54555724700711 C 0.0 **** -0.24
8087 H 63.527415770795585 106.71891767198426 42.99209870674015 H 0.0 **** 0.06
8088 H 63.931879401551214 108.45255649373274 42.973227596272395 H 0.0 **** 0.06
8089 H 65.05372286103727 107.28379246409591 43.71062327169666 H 0.0 **** 0.06
8090 H 63.505791462682055 107.65374676279421 44.506452176975486 H 0.0 **** 0.06
8091 C 54.608113337444536 99.19507678674756 61.7840488113535 C 0.0 **** -0.24
8092 H 54.63141891821715 98.87103531528541 60.74397542949873 H 0.0 **** 0.06
8093 H 54.45621188589945 98.33078000078058 62.43062185280394 H 0.0 **** 0.06
8094 H 53.79230640620972 99.90393169858035 61.92489781526848 H 0.0 **** 0.06
8095 H 55.553853657254194 99.6751912393108 62.03502299006584 H 0.0 **** 0.06
8096 C 75.66196430377272 76.05180504702699 96.81304484480285 C 0.0 **** -0.24
8097 H 75.69551831895723 75.49532317212952 95.87555896898022 H 0.0 **** 0.06
8098 H 76.33246783817998 75.58601955148914 97.5352827322398 H 0.0 **** 0.06
8099 H 74.64446925751606 76.04373974694715 97.20308772831675 H 0.0 **** 0.06
8100 H 75.97611713945166 77.08025966271276 96.63580834849506 H 0.0 **** 0.06
8101 C 133.67033174968654 92.84429239248058 107.83506554830137 C 0.0 **** -0.24
8102 H 132.58352152578686 92.86501516792279 107.75387572275997 H 0.0 **** 0.06
8103 H 134.0352054202727 93.84335723156488 108.07260149330955 H 0.0 **** 0.06
8104 H 134.09823633557895 92.51512295850881 106.88795370721868 H 0.0 **** 0.06
8105 H 133.9616016323946 92.15234899664702 108.62504710879188 H 0.0 **** 0.06
8106 C 75.96547649632656 183.58319362489476 8.92573705850701 C 0.0 **** -0.24
8107 H 76.66443844148739 182.9744364641992 9.499459643845483 H 0.0 **** 0.06
8108 H 75.5511442548283 184.36198096477642 9.56670412089192 H 0.0 **** 0.06
8109 H 75.1594005994913 182.9532549533473 8.549993005103225 H 0.0 **** 0.06
8110 H 76.48827340041325 184.04268798810753 8.08685565381824 H 0.0 **** 0.06
8111 C 194.57072113683546 153.3576391300383 54.21924819034899 C 0.0 **** -0.24
8112 H 194.56776588162336 154.26739117676047 53.619266397124335 H 0.0 **** 0.06
8113 H 194.72368708622193 153.61427158463607 55.268189044209265 H 0.0 **** 0.06
8114 H 195.37626021963277 152.70392049875724 53.8840565583196 H 0.0 **** 0.06
8115 H 193.61570812917455 152.84422410546 54.105868921246724 H 0.0 **** 0.06
8116 C 58.856429558031635 162.26187539128514 0.9282796683054144 C 0.0 **** -0.24
8117 H 58.85237296660182 161.17081353047973 0.9178252419798625 H 0.0 **** 0.06
8118 H 58.142914940975345 162.6335743737784 0.19274350755824798 H 0.0 **** 0.06
8119 H 59.85496987271762 162.6235010185548 0.683020976431024 H 0.0 **** 0.06
8120 H 58.5751339553338 162.6158954808796 1.9198053770629855 H 0.0 **** 0.06
8121 C 61.17617889842795 135.68015462034776 170.5717425212797 C 0.0 **** -0.24
8122 H 61.37026845174273 136.42880494794258 169.8035865364776 H 0.0 **** 0.06
8123 H 60.44065492650546 136.06534517721533 171.27726600278893 H 0.0 **** 0.06
8124 H 62.10263043686406 135.45377058651715 171.09999673050908 H 0.0 **** 0.06
8125 H 60.7931722778801 134.77176993909148 170.10580915678275 H 0.0 **** 0.06
8126 C 190.92475351452168 14.447552612764923 111.25179166507112 C 0.0 **** -0.24
8127 H 190.46370796372491 15.02270140358965 110.44804818728412 H 0.0 **** 0.06
8128 H 191.93551950118461 14.161583113462484 110.96110240793516 H 0.0 **** 0.06
8129 H 190.33330904230687 13.55171914481653 111.44222413824858 H 0.0 **** 0.06
8130 H 190.96407949201944 15.05643167764589 112.1552447313357 H 0.0 **** 0.06
8131 C 85.71673976703676 129.94060186012024 23.38827397175369 C 0.0 **** -0.24
8132 H 86.6375189823159 130.06489969089765 23.957647622932285 H 0.0 **** 0.06
8133 H 85.95941681979775 129.68756534327505 22.355332497062932 H 0.0 **** 0.06
8134 H 85.14745547085965 130.8702970726894 23.410385090594943 H 0.0 **** 0.06
8135 H 85.12234132345822 129.14042483360151 23.828572603208954 H 0.0 **** 0.06
8136 C 64.99737304724147 129.90213633457628 12.62863356727749 C 0.0 **** -0.24
8137 H 65.85993750069196 129.46185052245505 12.130036922393614 H 0.0 **** 0.06
8138 H 64.38198464027488 129.11055689828507 13.057881535640789 H 0.0 **** 0.06
8139 H 64.40983452570126 130.46858464174338 11.905659503084536 H 0.0 **** 0.06
8140 H 65.33711400742632 130.5687170274561 13.422078567429807 H 0.0 **** 0.06
8141 C 43.77435211240629 41.25493676056914 102.62962273722306 C 0.0 **** -0.24
8142 H 43.04460579131985 40.987093132435575 101.86612240282946 H 0.0 **** 0.06
8143 H 43.96694984766306 42.32774196566925 102.58826065921428 H 0.0 **** 0.06
8144 H 44.70261968639632 40.71156536842415 102.45091196467692 H 0.0 **** 0.06
8145 H 43.383946344869074 40.99325883563614 103.61250048013065 H 0.0 **** 0.06
8146 C 173.0781450930941 1.9498099428347473 106.73072630413998 C 0.0 **** -0.24
8147 H 173.51347790248107 2.815245503780943 107.23005216081893 H 0.0 **** 0.06
8148 H 173.74083846202828 1.620537895803409 105.92993662123837 H 0.0 **** 0.06
8149 H 172.10882578024686 2.220917522658368 106.31209945704143 H 0.0 **** 0.06
8150 H 172.94871316627825 1.1414316235765796 107.45131535576391 H 0.0 **** 0.06
8151 C 52.34702789272035 126.91995341738362 172.395554785247 C 0.0 **** -0.24
8152 H 52.15398617660205 127.98598138731842 172.27548003597207 H 0.0 **** 0.06
8153 H 51.86599203681483 126.56363614393902 173.30650713869215 H 0.0 **** 0.06
8154 H 53.421664551382605 126.74965754908973 172.46190276606927 H 0.0 **** 0.06
8155 H 51.94616864600478 126.38055128249493 171.537375384536 H 0.0 **** 0.06
8156 C 39.79136677138683 38.57649310313889 58.842182542147725 C 0.0 **** -0.24
8157 H 39.438201470144136 37.55829770998976 58.676631613522545 H 0.0 **** 0.06
8158 H 40.611199822692456 38.79272198084658 58.157304071721384 H 0.0 **** 0.06
8159 H 40.138094261138235 38.677238125400265 59.869801699834596 H 0.0 **** 0.06
8160 H 38.97456040912398 39.27645649319304 58.664108632620724 H 0.0 **** 0.06
8161 C 173.70622432445467 118.87834226791585 155.20855329676778 C 0.0 **** -0.24
8162 H 174.14012507678058 119.20708500284104 156.1526873050889 H 0.0 **** 0.06
8163 H 172.80107555868096 118.30362246724076 155.40518124053156 H 0.0 **** 0.06
8164 H 174.42512342565198 118.25396743096019 154.6769934678883 H 0.0 **** 0.06
8165 H 173.45978960055743 119.7475483061408 154.59889563166445 H 0.0 **** 0.06
8166 C 52.343782460611536 22.78122501671723 142.96584027469274 C 0.0 **** -0.24
8167 H 51.88396090501125 22.51909646414873 143.91947252709284 H 0.0 **** 0.06
8168 H 52.091024696680165 22.025015183298095 142.222362708442 H 0.0 **** 0.06
8169 H 53.42600947192875 22.826661226242408 143.08558967445634 H 0.0 **** 0.06
8170 H 51.97336839874292 23.752120031258684 142.63846288933627 H 0.0 **** 0.06
8171 C 115.25080888955247 97.6293743959055 127.13875753008259 C 0.0 **** -0.24
8172 H 115.51664918318272 98.45769467142313 127.79513328469642 H 0.0 **** 0.06
8173 H 114.83479624542423 98.02150977693125 126.20977849762554 H 0.0 **** 0.06
8174 H 114.51019202244385 96.99883636397621 127.63100252512595 H 0.0 **** 0.06
8175 H 116.14103213078442 97.04043323214174 126.91826361678727 H 0.0 **** 0.06
8176 C 37.24607237689288 49.941057268360936 26.310488832455235 C 0.0 **** -0.24
8177 H 37.154549628075685 49.87047705917166 27.394369685690435 H 0.0 **** 0.06
8178 H 37.66851679321191 49.013987837172664 25.921959961140885 H 0.0 **** 0.06
8179 H 37.90034224708168 50.774624350095934 26.055521117976326 H 0.0 **** 0.06
8180 H 36.26189554496884 50.10350360495025 25.873312906054082 H 0.0 **** 0.06
8181 C 2.481617230694013 119.85715525546604 73.30443369859694 C 0.0 **** -0.24
8182 H 2.343275024142926 120.01171225449724 72.2338108540377 H 0.0 **** 0.06
8183 H 3.5423516981073533 119.92529764620534 73.54670770691979 H 0.0 **** 0.06
8184 H 2.1080111097154983 118.87189547669476 73.57985024735012 H 0.0 **** 0.06
8185 H 1.9332850904903651 120.62173771180724 73.8547765139823 H 0.0 **** 0.06
8186 C 66.55363905699954 162.27730549512745 21.874487385154964 C 0.0 **** -0.24
8187 H 66.28240069255097 163.24983289468554 22.28651883023832 H 0.0 **** 0.06
8188 H 65.96280469265801 161.50046731116697 22.358205111253113 H 0.0 **** 0.06
8189 H 67.61285467065326 162.09117884182342 22.050776424714556 H 0.0 **** 0.06
8190 H 66.3568736598349 162.27004025420393 20.801687631729664 H 0.0 **** 0.06
8191 C 35.93118854494415 66.10632259632155 34.252395493622146 C 0.0 **** -0.24
8192 H 35.667209450265034 67.13040724333702 33.98961736982102 H 0.0 **** 0.06
8193 H 35.928210997520694 65.99779097959646 35.33777503194534 H 0.0 **** 0.06
8194 H 36.924276082386996 65.87681570324261 33.86741187077217 H 0.0 **** 0.06
8195 H 35.20438500562534 65.42103087715304 33.816772322610404 H 0.0 **** 0.06
8196 C 144.64882850874014 81.51874176978322 66.99229699541068 C 0.0 **** -0.24
8197 H 143.90076798873667 81.73133709147373 66.22858018342153 H 0.0 **** 0.06
8198 H 145.60677403568187 81.94286847239744 66.69025791792724 H 0.0 **** 0.06
8199 H 144.75014643417887 80.43983727876537 67.11139555899844 H 0.0 **** 0.06
8200 H 144.33721078157578 81.96150191497156 67.93825128894866 H 0.0 **** 0.06
8201 C 128.8622783820166 79.12007524687823 27.593809037490246 C 0.0 **** -0.24
8202 H 129.18577616093793 78.61740437895665 26.682382756171847 H 0.0 **** 0.06
8203 H 128.50488205644228 78.38034964777991 28.310663696446653 H 0.0 **** 0.06
8204 H 128.0556246941571 79.81586826122972 27.358125689999895 H 0.0 **** 0.06
8205 H 129.70019115005923 79.66905511070391 28.02344258334483 H 0.0 **** 0.06
8206 C 14.040342040190616 36.1140516067743 39.03281982013769 C 0.0 **** -0.24
8207 H 13.010118674597983 36.46353819894887 38.96911260323941 H 0.0 **** 0.06
8208 H 14.127309923711536 35.14749914253221 38.53520085773229 H 0.0 **** 0.06
8209 H 14.32381097215469 36.010677861931015 40.080055661805375 H 0.0 **** 0.06
8210 H 14.698199052915442 36.83419964583106 38.54734828368046 H 0.0 **** 0.06
8211 C 19.112438391641703 146.78485228446527 66.35009007917657 C 0.0 **** -0.24
8212 H 18.788598256204494 146.01917549780796 65.64482820115816 H 0.0 **** 0.06
8213 H 18.94270046866727 147.77089211512714 65.91855774554543 H 0.0 **** 0.06
8214 H 20.174036528269937 146.65806338857215 66.56192173636065 H 0.0 **** 0.06
8215 H 18.543856675864276 146.68936439190747 67.27520173733295 H 0.0 **** 0.06
8216 C 109.07163946616132 104.44603465176581 107.5640638503848 C 0.0 **** -0.24
8217 H 109.12672033903539 104.92252984695344 108.5433483493282 H 0.0 **** 0.06
8218 H 108.16739883497956 104.77469333818823 107.05083967719887 H 0.0 **** 0.06
8219 H 109.04471420130571 103.36313239538657 107.6885284344431 H 0.0 **** 0.06
8220 H 109.94581103692877 104.72239302284274 106.97563817991508 H 0.0 **** 0.06
8221 C 135.1214861337106 161.22723022314239 163.65622380165772 C 0.0 **** -0.24
8222 H 135.67657598622722 161.87033306494243 164.33891455574246 H 0.0 **** 0.06
8223 H 135.82094971456365 160.6836215804206 163.02082862284084 H 0.0 **** 0.06
8224 H 134.4649035123782 161.83757791197348 163.03592899378566 H 0.0 **** 0.06
8225 H 134.52488108930544 160.5175589788057 164.22889806844927 H 0.0 **** 0.06
8226 C 5.891829776951475 78.74527947111753 115.17870372896141 C 0.0 **** -0.24
8227 H 6.448496166825642 77.82389941821536 115.01063234993262 H 0.0 **** 0.06
8228 H 5.467863885422162 79.09086816548373 114.23631525195606 H 0.0 **** 0.06
8229 H 6.562807616534691 79.50646771656918 115.57719323048025 H 0.0 **** 0.06
8230 H 5.089008556484231 78.56034987221574 115.89292066338203 H 0.0 **** 0.06
8231 C 27.43403822799401 6.995928771873636 9.2925578705837 C 0.0 **** -0.24
8232 H 27.62325978781371 7.708317325498733 10.095714416923371 H 0.0 **** 0.06
8233 H 28.05832466326956 6.113802546280745 9.435541981574417 H 0.0 **** 0.06
8234 H 27.670074913837425 7.4573456584847975 8.333695095936505 H 0.0 **** 0.06
8235 H 26.383662692181773 6.703654496285317 9.306257549092386 H 0.0 **** 0.06
8236 C 171.5294298928787 88.63495331364277 5.9027401098873185 C 0.0 **** -0.24
8237 H 172.39090613457208 89.04627795067836 5.377219989152813 H 0.0 **** 0.06
8238 H 170.9762075719307 89.44326565561951 6.382168862794408 H 0.0 **** 0.06
8239 H 171.86936457097605 87.92824855436456 6.659607650751163 H 0.0 **** 0.06
8240 H 170.88082218866774 88.12262492590247 5.192641992328198 H 0.0 **** 0.06
8241 C 162.22322246319922 149.70169184878552 195.4736724020128 C 0.0 **** -0.24
8242 H 162.28522586855672 150.16848285468632 194.4907744363456 H 0.0 **** 0.06
8243 H 161.48939174435188 150.23258084516706 196.08178511873095 H 0.0 **** 0.06
8244 H 163.19800588983176 149.74831378661483 195.95861604451298 H 0.0 **** 0.06
8245 H 161.92041317455255 148.66053618841204 195.3632319046782 H 0.0 **** 0.06
8246 C 120.75465289681989 49.8906268796847 149.58024781808237 C 0.0 **** -0.24
8247 H 121.08485124187112 49.146588887329074 148.8553256140393 H 0.0 **** 0.06
8248 H 119.97648891311044 49.460691983552834 150.21180106724916 H 0.0 **** 0.06
8249 H 120.35893141248121 50.75950606190969 149.05538580515517 H 0.0 **** 0.06
8250 H 121.59904648842246 50.192509811091156 150.20026543906016 H 0.0 **** 0.06
8251 C 150.5386570826804 173.3965117755386 86.61656449808277 C 0.0 **** -0.24
8252 H 151.19629076891013 172.91178452568596 87.33763945601822 H 0.0 **** 0.06
8253 H 149.8054630421897 174.00646617893045 87.14724036414452 H 0.0 **** 0.06
8254 H 150.02260943919345 172.63791691383517 86.02882277884447 H 0.0 **** 0.06
8255 H 151.12859820177994 174.0302105606812 85.955027659118 H 0.0 **** 0.06
8256 C 52.46041203958245 80.4803880978589 23.69252860943672 C 0.0 **** -0.24
8257 H 51.645465368325034 79.76247981755563 23.594675003959168 H 0.0 **** 0.06
8258 H 52.07013981402946 81.41883212418279 24.0876375859703 H 0.0 **** 0.06
8259 H 52.90916181318818 80.65562360722362 22.71478639471522 H 0.0 **** 0.06
8260 H 53.213533129590274 80.0840662759955 24.372317019378784 H 0.0 **** 0.06
8261 C 26.278597495945917 198.73200949161168 50.82605386333137 C 0.0 **** -0.24
8262 H 25.488001363741432 198.09684934657224 51.22567246850787 H 0.0 **** 0.06
8263 H 25.837971094409852 199.6254821360164 50.38403272767182 H 0.0 **** 0.06
8264 H 26.833544120375223 198.18384899916725 50.063637942758604 H 0.0 **** 0.06
8265 H 26.95487941610716 199.01898567367658 51.63173998939486 H 0.0 **** 0.06
8266 C 69.45266181897182 144.4678348890096 3.4076544755843443 C 0.0 **** -0.24
8267 H 69.08901033460273 143.53712270670448 2.9720352418964424 H 0.0 **** 0.06
8268 H 70.5116306763415 144.3671446362638 3.6481480146052476 H 0.0 **** 0.06
8269 H 68.89210149274072 144.68518561885878 4.317015498394518 H 0.0 **** 0.06
8270 H 69.31719666153049 145.2803158877094 2.693596700846399 H 0.0 **** 0.06
8271 C 38.74339250091387 110.49906966280332 136.03372168623994 C 0.0 **** -0.24
8272 H 38.34611576716678 109.48413934246389 136.02576421944326 H 0.0 **** 0.06
8273 H 38.45480374458437 110.99489931464956 136.96185757159188 H 0.0 **** 0.06
8274 H 38.34230182725641 111.05308418407117 135.18564041580183 H 0.0 **** 0.06
8275 H 39.83078023698636 110.4638065122478 135.96326520909128 H 0.0 **** 0.06
8276 C 14.259097387433116 81.44790500101445 185.03269703371535 C 0.0 **** -0.24
8277 H 14.358847345794402 81.86834795449988 186.03262318998173 H 0.0 **** 0.06
8278 H 14.578120388661375 82.18506906135053 184.29535506993966 H 0.0 **** 0.06
8279 H 13.217081338047137 81.1820585062242 184.85310056976616 H 0.0 **** 0.06
8280 H 14.881391287333088 80.55703620422429 184.94915802192688 H 0.0 **** 0.06
8281 C 20.81686787231604 80.22691851067742 196.03855595145887 C 0.0 **** -0.24
8282 H 20.221212791213176 79.34234014987686 196.2665709852596 H 0.0 **** 0.06
8283 H 20.512565189224347 81.04675024426649 196.69074728128567 H 0.0 **** 0.06
8284 H 20.659848576461712 80.51299821979808 194.99852805556972 H 0.0 **** 0.06
8285 H 21.87154131967192 80.00568571541379 196.20076150321128 H 0.0 **** 0.06
8286 C 98.69194630589044 49.72949533311271 84.89114428643057 C 0.0 **** -0.24
8287 H 99.33288623611995 49.4416011956763 84.05802505923558 H 0.0 **** 0.06
8288 H 98.64584115474506 48.91422970790248 85.61327998089101 H 0.0 **** 0.06
8289 H 97.68902142139751 49.94398982202634 84.52091666641721 H 0.0 **** 0.06
8290 H 99.09944463537806 50.61886218815789 85.37275243607797 H 0.0 **** 0.06
8291 C 69.86139135685465 25.55943404454449 34.44703335916722 C 0.0 **** -0.24
8292 H 70.19929203631187 24.9845757379793 35.308923565269595 H 0.0 **** 0.06
8293 H 70.53626062306637 25.38574620255156 33.60827313614786 H 0.0 **** 0.06
8294 H 69.85764510825697 26.62060889493607 34.697673744329705 H 0.0 **** 0.06
8295 H 68.85423785302328 25.246989525976716 34.17394749091258 H 0.0 **** 0.06
8296 C 99.52971452824352 85.16166650141645 92.929339109562 C 0.0 **** -0.24
8297 H 98.82636851154325 84.33568644239003 92.82593217050035 H 0.0 **** 0.06
8298 H 99.18178261087922 86.0108576422133 92.33971846282674 H 0.0 **** 0.06
8299 H 100.51167704261951 84.84947414311577 92.5739741818104 H 0.0 **** 0.06
8300 H 99.59836478473983 85.45163278825851 93.97849801455536 H 0.0 **** 0.06
8301 C 193.7974378250272 106.96085149840604 52.2736121491526 C 0.0 **** -0.24
8302 H 194.67671623070905 107.39419095933181 52.75121983244321 H 0.0 **** 0.06
8303 H 192.91177863530316 107.5258655219464 52.56394580445311 H 0.0 **** 0.06
8304 H 193.68702520121874 105.92362951526354 52.58880617930889 H 0.0 **** 0.06
8305 H 193.91582081787715 107.00122993628798 51.19091656581712 H 0.0 **** 0.06
8306 C 195.9474942758531 129.60426679890162 50.5677156555314 C 0.0 **** -0.24
8307 H 195.1430549939193 128.8937553770859 50.380252001342825 H 0.0 **** 0.06
8308 H 196.82395409126028 129.0715866194043 50.93669492338847 H 0.0 **** 0.06
8309 H 195.6234466647692 130.33129864349735 51.31315482145533 H 0.0 **** 0.06
8310 H 196.1988759152362 130.12097863772988 49.64128873619916 H 0.0 **** 0.06
8311 C 37.47219689167821 122.64689771249155 186.56660295909197 C 0.0 **** -0.24
8312 H 38.3917345388914 122.10932489217953 186.33391932633987 H 0.0 **** 0.06
8313 H 37.58575537298742 123.1662749521494 187.51876180166778 H 0.0 **** 0.06
8314 H 36.645471377788624 121.94022182159691 186.6332646055971 H 0.0 **** 0.06
8315 H 37.26697572072925 123.37303065589992 185.7790212581177 H 0.0 **** 0.06
8316 C 120.07497509085312 12.808695835294735 10.104954629446624 C 0.0 **** -0.24
8317 H 119.06404250120096 13.156875665141314 9.892505122669846 H 0.0 **** 0.06
8318 H 120.4392953589099 12.216488726200431 9.26535164566149 H 0.0 **** 0.06
8319 H 120.06567624676754 12.195468864832002 11.0061748586308 H 0.0 **** 0.06
8320 H 120.72960615888721 13.666295898708533 10.2562786286924 H 0.0 **** 0.06
8321 C 118.86628534900984 163.26117876944764 157.22140191626926 C 0.0 **** -0.24
8322 H 119.88260618951585 163.43258639675025 156.86493160337784 H 0.0 **** 0.06
8323 H 118.37473572914371 162.53228930777237 156.57742459095982 H 0.0 **** 0.06
8324 H 118.3110800313388 164.1986648482579 157.1998014825101 H 0.0 **** 0.06
8325 H 118.89852261027829 162.88060102903725 158.24225843076675 H 0.0 **** 0.06
8326 C 144.13656285330714 115.4263201415308 188.70176779910034 C 0.0 **** -0.24
8327 H 144.50096274523418 115.71584463913862 187.71650643775564 H 0.0 **** 0.06
8328 H 143.23891689650583 115.9977106450983 188.93913528157765 H 0.0 **** 0.06
8329 H 144.9039801547657 115.62919214123716 189.44773916996326 H 0.0 **** 0.06
8330 H 143.90034613159537 114.36194153474068 188.70300759111217 H 0.0 **** 0.06
8331 C 177.1774243425324 172.36632939441222 144.19576970638266 C 0.0 **** -0.24
8332 H 178.0745691916923 171.9844925298498 143.70734116993611 H 0.0 **** 0.06
8333 H 177.02508207331212 171.83809573505766 145.1370835334216 H 0.0 **** 0.06
8334 H 176.31649060446176 172.20938616743763 143.54641572630183 H 0.0 **** 0.06
8335 H 177.2962859735727 173.4318627770063 144.3910750966067 H 0.0 **** 0.06
8336 C 123.92518990236044 138.39382139844108 70.14735476839606 C 0.0 **** -0.24
8337 H 123.60215161852739 139.20354299940632 69.49219760946283 H 0.0 **** 0.06
8338 H 123.23854081815063 137.55251653805257 70.05105389012573 H 0.0 **** 0.06
8339 H 123.92905687900799 138.74300625021223 71.17964429006281 H 0.0 **** 0.06
8340 H 124.92941238215315 138.0776843419264 69.86597381019584 H 0.0 **** 0.06
8341 C 167.9461562867873 125.49439538328605 3.567625413445114 C 0.0 **** -0.24
8342 H 167.34827624624654 126.37565896296616 3.8006439720871583 H 0.0 **** 0.06
8343 H 167.47986816117069 124.61280776801951 4.006766995528153 H 0.0 **** 0.06
8344 H 168.94892538469176 125.61807419309287 3.9778221860750875 H 0.0 **** 0.06
8345 H 168.00797042788878 125.37365122644002 2.4866871564983057 H 0.0 **** 0.06
8346 C 48.06901135058601 46.784266903361825 33.13079333662708 C 0.0 **** -0.24
8347 H 47.38816451791408 46.05179888160646 32.698359703145115 H 0.0 **** 0.06
8348 H 47.5853539911011 47.76120783658331 33.152186535018814 H 0.0 **** 0.06
8349 H 48.97478910819004 46.8399924402254 32.5271411212878 H 0.0 **** 0.06
8350 H 48.32792909772165 46.4838036518114 34.14643113274201 H 0.0 **** 0.06
8351 C 20.901514115146753 26.57840898835127 96.3593961977939 C 0.0 **** -0.24
8352 H 21.193665405597812 25.955386674447993 97.20486204982194 H 0.0 **** 0.06
8353 H 21.22135668994696 27.605667132126143 96.5378987026806 H 0.0 **** 0.06
8354 H 19.818105602311704 26.549912711752967 96.24402880895735 H 0.0 **** 0.06
8355 H 21.373013784124794 26.202997364938142 95.45173610961535 H 0.0 **** 0.06
8356 C 8.752993922781002 78.73781534275801 36.086754319786166 C 0.0 **** -0.24
8357 H 9.235068672207603 79.53542440107037 36.652077598796836 H 0.0 **** 0.06
8358 H 7.936445827412598 79.15433457829604 35.49521339881176 H 0.0 **** 0.06
8359 H 8.359106499126085 77.9909650349809 36.774645993606384 H 0.0 **** 0.06
8360 H 9.481698890649938 78.27221279450437 35.42332684407191 H 0.0 **** 0.06
8361 C 128.74867915163915 4.652495139251307 41.38733051059222 C 0.0 **** -0.24
8362 H 128.41601096648733 5.681135595384532 41.25294916747731 H 0.0 **** 0.06
8363 H 128.99530326927396 4.219935998241915 40.4169260334894 H 0.0 **** 0.06
8364 H 127.95249148800843 4.071907639453038 41.8528270547767 H 0.0 **** 0.06
8365 H 129.63185815624058 4.636907303362371 42.02692614385899 H 0.0 **** 0.06
8366 C 119.5964224098447 2.696280712977625 139.51549214051283 C 0.0 **** -0.24
8367 H 120.1369786404405 1.9676933413105075 140.12006562274536 H 0.0 **** 0.06
8368 H 118.97434128615879 2.1733478222294593 138.78864417587272 H 0.0 **** 0.06
8369 H 120.30934202336371 3.3343265300301823 138.99297242947728 H 0.0 **** 0.06
8370 H 118.96639649825491 3.3077706292884272 140.16072008100772 H 0.0 **** 0.06
8371 C 144.40992994165282 29.592119354826153 6.386268360338008 C 0.0 **** -0.24
8372 H 144.00779186472656 30.602996323924884 6.457031439779165 H 0.0 **** 0.06
8373 H 143.7044454323852 28.957792735315408 5.850105122737602 H 0.0 **** 0.06
8374 H 144.56892344714947 29.19332378866889 7.388175464145398 H 0.0 **** 0.06
8375 H 145.35882070641398 29.616579301739264 5.849598322573442 H 0.0 **** 0.06
8376 C 32.551480496164146 33.09347130157869 179.38421141002794 C 0.0 **** -0.24
8377 H 31.707818881670192 33.78477627993169 179.38134374865027 H 0.0 **** 0.06
8378 H 32.260737677450805 32.163547466574926 178.89466368503278 H 0.0 **** 0.06
8379 H 32.84626416685934 32.88658333330096 180.41368490116926 H 0.0 **** 0.06
8380 H 33.38863150093921 33.54014946158219 178.84970841259513 H 0.0 **** 0.06
8381 C 86.92521043798777 63.18299078868256 83.03468741197801 C 0.0 **** -0.24
8382 H 86.85303232261919 62.868369638279034 81.99386152787707 H 0.0 **** 0.06
8383 H 87.23177228960162 62.336149286238935 83.64954024491908 H 0.0 **** 0.06
8384 H 85.95502273417998 63.54673374953154 83.37206338159405 H 0.0 **** 0.06
8385 H 87.66355833131138 63.981417555369205 83.12127732514537 H 0.0 **** 0.06
8386 C 175.67940380354975 63.649725552930704 162.52352475514823 C 0.0 **** -0.24
8387 H 176.4191051550532 63.45469913433948 161.7472121353751 H 0.0 **** 0.06
8388 H 175.96450955282944 63.12373018016012 163.4356619717138 H 0.0 **** 0.06
8389 H 174.70260464665742 63.298766263698724 162.19124526670493 H 0.0 **** 0.06
8390 H 175.63334025217762 64.72070480876488 162.72044418201565 H 0.0 **** 0.06
8391 C 54.85155203727447 14.313398812551753 174.23650153087968 C 0.0 **** -0.24
8392 H 53.83200321147751 14.516072725646183 173.9063891409571 H 0.0 **** 0.06
8393 H 55.54897511113484 14.91367993923916 173.6518885682188 H 0.0 **** 0.06
8394 H 55.07487339811749 13.256368635061648 174.0956951658688 H 0.0 **** 0.06
8395 H 54.948228551281034 14.568619002566152 175.2916318459107 H 0.0 **** 0.06
8396 C 9.487643654346101 149.61302142123532 59.16521584033319 C 0.0 **** -0.24
8397 H 9.723128690025561 150.56412490579064 58.68734384001942 H 0.0 **** 0.06
8398 H 9.981516383940729 148.80443746108872 58.626768648141535 H 0.0 **** 0.06
8399 H 8.409586572862551 149.45590369668955 59.14967199535977 H 0.0 **** 0.06
8400 H 9.837419535159952 149.6295704466402 60.19726702007597 H 0.0 **** 0.06
8401 C 161.45072550859544 43.35335744217474 191.15442967725323 C 0.0 **** -0.24
8402 H 161.38855715376812 43.66664152139873 192.19677264964534 H 0.0 **** 0.06
8403 H 162.068249991484 44.05936430355007 190.59929590608493 H 0.0 **** 0.06
8404 H 160.4496197772366 43.328099037544916 190.72300873567656 H 0.0 **** 0.06
8405 H 161.89484475688175 42.360253910595816 191.0998575596472 H 0.0 **** 0.06
8406 C 62.200827147188136 182.99014190604632 105.09456983434688 C 0.0 **** -0.24
8407 H 62.16194896237772 184.0212794366912 104.74478055420911 H 0.0 **** 0.06
8408 H 61.571595006676375 182.36692064810515 104.46034840116158 H 0.0 **** 0.06
8409 H 61.84224591504841 182.9420853533107 106.1223989705266 H 0.0 **** 0.06
8410 H 63.229225858857376 182.630687764166 105.05213749915373 H 0.0 **** 0.06
8411 C 55.678250585485344 91.55077564748038 75.53817868065158 C 0.0 **** -0.24
8412 H 55.55201929516028 90.70189940400275 76.20906424074215 H 0.0 **** 0.06
8413 H 55.23597997871683 91.31755812451902 74.57031352959945 H 0.0 **** 0.06
8414 H 56.74025869793063 91.7601271582204 75.41236380167454 H 0.0 **** 0.06
8415 H 55.1837316089121 92.42538040470936 75.96220015199974 H 0.0 **** 0.06
8416 C 128.8049593654523 175.87519409307907 17.895822546979616 C 0.0 **** -0.24
8417 H 129.17455330304924 174.8495868810109 17.88399625633724 H 0.0 **** 0.06
8418 H 128.07235810808135 176.005887588524 17.099239032700837 H 0.0 **** 0.06
8419 H 129.6354047104491 176.5623276829787 17.741840129975003 H 0.0 **** 0.06
8420 H 128.3362300905213 176.0809023730759 18.858014132339292 H 0.0 **** 0.06
8421 C 116.12557112625495 122.80683950903102 112.20976421320438 C 0.0 **** -0.24
8422 H 116.19717316607111 122.55849746104514 111.15099414808955 H 0.0 **** 0.06
8423 H 116.13978699778733 123.89024912691914 112.33046301521551 H 0.0 **** 0.06
8424 H 116.97062314324572 122.37087337462944 112.74328395617911 H 0.0 **** 0.06
8425 H 115.19607027221025 122.40738359363277 112.61432050950108 H 0.0 **** 0.06
8426 C 188.18438938310317 86.55404822186688 83.69649349665067 C 0.0 **** -0.24
8427 H 188.87203552701408 86.35559188058022 84.51916327469525 H 0.0 **** 0.06
8428 H 187.4685308743386 87.31894927617441 83.99899915789271 H 0.0 **** 0.06
8429 H 187.65192043647056 85.63867840664363 83.43935230474236 H 0.0 **** 0.06
8430 H 188.74667660954657 86.90323842999214 82.82999250205111 H 0.0 **** 0.06
8431 C 84.87021964514031 145.6371275867434 50.989855759379836 C 0.0 **** -0.24
8432 H 85.34433500456592 145.34172616261745 51.925652905986965 H 0.0 **** 0.06
8433 H 83.83266952773226 145.91302974782448 51.180754828874626 H 0.0 **** 0.06
8434 H 84.90155690910044 144.80380241171682 50.287896492661645 H 0.0 **** 0.06
8435 H 85.40153737145846 146.48999560732284 50.56801540410707 H 0.0 **** 0.06
8436 C 22.544971884604536 13.8495053603814 166.15292725353459 C 0.0 **** -0.24
8437 H 23.606689495928435 13.904311191162641 165.91358293093276 H 0.0 **** 0.06
8438 H 21.967949702464182 14.314272877170488 165.3525652915896 H 0.0 **** 0.06
8439 H 22.356248057560094 14.374795533247571 167.08919390069434 H 0.0 **** 0.06
8440 H 22.24910498142458 12.80514556677192 166.255509383471 H 0.0 **** 0.06
8441 C 180.8937780231846 57.48753541677195 34.8616625231646 C 0.0 **** -0.24
8442 H 180.26447277671724 56.61003041947876 34.71561269257339 H 0.0 **** 0.06
8443 H 181.45312534856868 57.68910307219278 33.947465740671205 H 0.0 **** 0.06
8444 H 181.5900592843124 57.30217962347689 35.67995668302254 H 0.0 **** 0.06
8445 H 180.26860936746664 58.346700536538776 35.1032429760383 H 0.0 **** 0.06
8446 C 20.25872298963911 133.85737887427047 98.7238241944014 C 0.0 **** -0.24
8447 H 19.98834415194034 134.1252501621084 97.70214765451269 H 0.0 **** 0.06
8448 H 19.519037724969436 134.2647832910576 99.41308904540767 H 0.0 **** 0.06
8449 H 21.24137983625903 134.26868570755423 98.95840452192047 H 0.0 **** 0.06
8450 H 20.286730750937423 132.7724195056952 98.8188262533449 H 0.0 **** 0.06
8451 C 127.87777210968295 197.3808397767696 198.4500061201552 C 0.0 **** -0.24
8452 H 127.37158843730543 196.48547545540606 198.8115618079982 H 0.0 **** 0.06
8453 H 128.86385055845182 197.11203165695403 198.07079222718843 H 0.0 **** 0.06
8454 H 127.98553944545102 198.09290388118163 199.26898452181825 H 0.0 **** 0.06
8455 H 127.29055477349806 197.83261008115 197.65145866258172 H 0.0 **** 0.06
8456 C 176.7262830447915 28.232370710287142 144.86237337410694 C 0.0 **** -0.24
8457 H 177.56972291019918 28.896397794158304 145.05491930536374 H 0.0 **** 0.06
8458 H 177.00029436609483 27.51118404268368 144.09231216197563 H 0.0 **** 0.06
8459 H 175.87267711991342 28.8191062137507 144.52564051683925 H 0.0 **** 0.06
8460 H 176.46486415302292 27.703826404067343 145.77908093959954 H 0.0 **** 0.06
8461 C 36.202504104374725 19.839291369225748 5.082593640976128 C 0.0 **** -0.24
8462 H 35.583719523777575 19.09218191996746 4.58521571270289 H 0.0 **** 0.06
8463 H 36.15308418179046 19.691911323147224 6.161207781499108 H 0.0 **** 0.06
8464 H 35.83790857591572 20.836190403501718 4.834416076842764 H 0.0 **** 0.06
8465 H 37.234499392880764 19.735937346466102 4.747423010733527 H 0.0 **** 0.06
8466 C 159.65223018212748 88.92602956899668 180.86049578157275 C 0.0 **** -0.24
8467 H 160.52581586891466 89.57638333124248 180.8254429978587 H 0.0 **** 0.06
8468 H 158.80771474974898 89.47534818018553 181.27739198498924 H 0.0 **** 0.06
8469 H 159.86885318701923 88.06092810675116 181.4865034467468 H 0.0 **** 0.06
8470 H 159.4073734361552 88.59341473431607 179.85195613426075 H 0.0 **** 0.06
8471 C 193.7640630708586 162.38620311783873 67.44185371695889 C 0.0 **** -0.24
8472 H 193.68054586631516 163.39274531718488 67.03127318615344 H 0.0 **** 0.06
8473 H 194.05581771581916 162.4448358374176 68.49027734606797 H 0.0 **** 0.06
8474 H 194.51715571490755 161.8284839700475 66.88531126532928 H 0.0 **** 0.06
8475 H 192.8023555004262 161.8802077813214 67.35970177719419 H 0.0 **** 0.06
8476 C 84.12994567588711 191.34298247131002 49.25124406468609 C 0.0 **** -0.24
8477 H 83.61212047867426 190.38568388580268 49.18097176641828 H 0.0 **** 0.06
8478 H 85.09242956575392 191.19853586749062 49.742086833931126 H 0.0 **** 0.06
8479 H 83.52564082659342 192.04013782450636 49.832539830068015 H 0.0 **** 0.06
8480 H 84.28806413851291 191.74517370146646 48.25076096120188 H 0.0 **** 0.06
8481 C 20.9553365801994 85.07968213002363 31.18254252401897 C 0.0 **** -0.24
8482 H 20.895938113463274 85.86560374813683 30.429435147550265 H 0.0 **** 0.06
8483 H 20.91231333495446 85.52515655044843 32.17713251684643 H 0.0 **** 0.06
8484 H 21.894173412963482 84.53734889457377 31.068311372301764 H 0.0 **** 0.06
8485 H 20.119632629517184 84.39128412606462 31.0555197531084 H 0.0 **** 0.06
8486 C 115.35692318888172 176.89071148899086 194.08299475093463 C 0.0 **** -0.24
8487 H 114.83132549948306 176.86819249094503 193.12899704687038 H 0.0 **** 0.06
8488 H 115.13034466389223 177.82357679016053 194.59988854885188 H 0.0 **** 0.06
8489 H 116.43074081865868 176.82319401315607 193.9070749358759 H 0.0 **** 0.06
8490 H 115.03598642137743 176.04801842339168 194.69532200840163 H 0.0 **** 0.06
8491 C 4.102493291725757 51.97825157649956 104.41048058103061 C 0.0 **** -0.24
8492 H 4.992329513626565 52.603100466542514 104.48038068216567 H 0.0 **** 0.06
8493 H 3.997798676514506 51.39188996852272 105.3237969568911 H 0.0 **** 0.06
8494 H 4.195367558229563 51.307992764273706 103.55576122100123 H 0.0 **** 0.06
8495 H 3.2238009498330555 52.61082232591167 104.28103284220518 H 0.0 **** 0.06
8496 C 6.105170537355612 95.19594445814494 183.44445150513508 C 0.0 **** -0.24
8497 H 5.613837572301101 95.1406566647263 184.4155961125649 H 0.0 **** 0.06
8498 H 5.646704242429124 95.98576334551063 182.84995217840566 H 0.0 **** 0.06
8499 H 5.995512409971717 94.24167564993672 182.9279809376533 H 0.0 **** 0.06
8500 H 7.163580489008865 95.41385882753946 183.58503731805743 H 0.0 **** 0.06
8501 C 92.63087772845259 18.347226751219807 142.91416437995065 C 0.0 **** -0.24
8502 H 92.26688143202463 19.374460698973337 142.92993751692228 H 0.0 **** 0.06
8503 H 92.45541298478702 17.914256183837438 141.92926068017437 H 0.0 **** 0.06
8504 H 92.1029617737816 17.763363831867565 143.66758491309866 H 0.0 **** 0.06
8505 H 93.69947493752505 18.33750361200498 143.129645596475 H 0.0 **** 0.06
8506 C 57.819701639363274 172.36986196916934 50.50013809231503 C 0.0 **** -0.24
8507 H 57.79086670140917 172.03846339350855 49.46219965004691 H 0.0 **** 0.06
8508 H 57.476325108493654 171.5641779717139 51.14889269354441 H 0.0 **** 0.06
8509 H 57.17080555819642 173.23729323367274 50.62228786305565 H 0.0 **** 0.06
8510 H 58.84160681627647 172.64003244739644 50.765724986378345 H 0.0 **** 0.06
8511 C 34.84341265187565 36.820260434036754 65.8792383751973 C 0.0 **** -0.24
8512 H 35.013489232937474 35.83736644381179 66.31863801377224 H 0.0 **** 0.06
8513 H 34.59163650042616 36.70854115835118 64.82512157319685 H 0.0 **** 0.06
8514 H 35.74759899079203 37.42170611526333 65.9764230090509 H 0.0 **** 0.06
8515 H 34.02229070441945 37.31328989045423 66.40010534100921 H 0.0 **** 0.06
8516 C 40.14718170493023 19.111939723705916 114.0994134502269 C 0.0 **** -0.24
8517 H 40.32068074664943 20.05430026613773 114.6187999813568 H 0.0 **** 0.06
8518 H 40.3571155978224 18.2815113425565 114.77475646145851 H 0.0 **** 0.06
8519 H 40.80254914452354 19.049978178149388 113.23138929132904 H 0.0 **** 0.06
8520 H 39.10807754034818 19.062229576321513 113.77439327669077 H 0.0 **** 0.06
8521 C 194.03071395319387 53.586821645761574 119.25127331352829 C 0.0 **** -0.24
8522 H 194.25091319925065 54.53477377607631 119.74225573108794 H 0.0 **** 0.06
8523 H 193.84686385897325 52.82152520290023 120.00605288588827 H 0.0 **** 0.06
8524 H 194.8788653967616 53.292592693541266 118.63336545066326 H 0.0 **** 0.06
8525 H 193.14570059004654 53.700116992336234 118.62475020547137 H 0.0 **** 0.06
8526 C 81.22153815725167 177.16306373769967 36.533719765662454 C 0.0 **** -0.24
8527 H 82.10567471263144 177.3268023091183 37.149783814863895 H 0.0 **** 0.06
8528 H 80.50244365030827 177.96240656815536 36.71232773988356 H 0.0 **** 0.06
8529 H 80.77243815201697 176.20400466583826 36.79167046369474 H 0.0 **** 0.06
8530 H 81.50796147413786 177.15952399015316 35.48151215325106 H 0.0 **** 0.06
8531 C 83.39220328552662 82.8502652480048 58.4775769979973 C 0.0 **** -0.24
8532 H 84.39558719059437 82.70636271760975 58.87783375843797 H 0.0 **** 0.06
8533 H 83.16708403186976 82.05519579628009 57.76569385934384 H 0.0 **** 0.06
8534 H 83.33620964742215 83.81538805885748 57.975064974785525 H 0.0 **** 0.06
8535 H 82.66916477552613 82.8229181480956 59.2934416648074 H 0.0 **** 0.06
8536 C 114.22275026442225 109.38348795924534 103.28229854299144 C 0.0 **** -0.24
8537 H 113.95580450798096 110.33971654870294 103.73254906847743 H 0.0 **** 0.06
8538 H 115.24546075892587 109.43199848653236 102.90779932407946 H 0.0 **** 0.06
8539 H 113.54320878009923 109.16862125418209 102.45823827269996 H 0.0 **** 0.06
8540 H 114.14642201946097 108.59569785568073 104.03141563902122 H 0.0 **** 0.06
8541 C 123.20175013921977 36.9557698863879 193.79998362303417 C 0.0 **** -0.24
8542 H 122.17161912728923 36.60338907753574 193.75375016448572 H 0.0 **** 0.06
8543 H 123.41720630639844 37.31774314269738 194.80544704383632 H 0.0 **** 0.06
8544 H 123.34083411473222 37.7666242953774 193.0839071677762 H 0.0 **** 0.06
8545 H 123.87751589032561 36.13619610817224 193.5557313922476 H 0.0 **** 0.06
8546 C 186.07307191012785 109.95189208999463 127.62652906454593 C 0.0 **** -0.24
8547 H 185.2513731268149 109.23763929775541 127.58213623140387 H 0.0 **** 0.06
8548 H 186.655689428167 109.77974719920718 128.531391839342 H 0.0 **** 0.06
8549 H 185.67251031097217 110.96569975147796 127.63757981514235 H 0.0 **** 0.06
8550 H 186.71188200900508 109.8242001284483 126.7521400658922 H 0.0 **** 0.06
8551 C 46.72816707029227 49.961389821238754 0.5479647983925133 C 0.0 **** -0.24
8552 H 47.187079165426425 50.28586475572615 -0.3858057204628267 H 0.0 **** 0.06
8553 H 46.9867317130647 50.66161122213987 1.3424665315380935 H 0.0 **** 0.06
8554 H 47.09330386248055 48.96708593644826 0.8061112701432194 H 0.0 **** 0.06
8555 H 45.64474641314435 49.93015065973481 0.42829233578197545 H 0.0 **** 0.06
8556 C 102.01395062506617 67.02121312596596 89.40907220242661 C 0.0 **** -0.24
8557 H 102.69549721782869 67.86050959491088 89.5480483312947 H 0.0 **** 0.06
8558 H 101.78377302413304 66.57634969026326 90.37801931833195 H 0.0 **** 0.06
8559 H 102.48348248929307 66.27433209458748 88.76812192546754 H 0.0 **** 0.06
8560 H 101.09436299870833 67.37395622650564 88.94253326867107 H 0.0 **** 0.06
8561 C 191.40779485571002 18.054035144192397 153.90138797122245 C 0.0 **** -0.24
8562 H 190.73539949901485 18.745359165663274 153.39593450322178 H 0.0 **** 0.06
8563 H 190.98129894559065 17.770914384794224 154.86404085296718 H 0.0 **** 0.06
8564 H 192.37303411091455 18.535799475239912 154.05986828266856 H 0.0 **** 0.06
8565 H 191.54299271303518 17.163974466801363 153.28760609377235 H 0.0 **** 0.06
8566 C 40.26215316431298 50.047292093202785 128.33809051480986 C 0.0 **** -0.24
8567 H 40.14123162207426 48.96580170695448 128.27335092416791 H 0.0 **** 0.06
8568 H 40.44243571488221 50.3304058735974 129.37537952126743 H 0.0 **** 0.06
8569 H 39.3558718927562 50.53654287014744 127.97997093282939 H 0.0 **** 0.06
8570 H 41.1084907416807 50.35549094907435 127.72455580186656 H 0.0 **** 0.06
8571 C 24.223608942628346 131.78326407901423 164.58772609890514 C 0.0 **** -0.24
8572 H 24.401216941767814 131.4256402290062 165.60186477722834 H 0.0 **** 0.06
8573 H 23.3482626375515 131.28332792973873 164.17435054041954 H 0.0 **** 0.06
8574 H 25.093725281731423 131.56532230439498 163.9683242704931 H 0.0 **** 0.06
8575 H 24.05285650429488 132.86002085073417 164.60724941473927 H 0.0 **** 0.06
8576 C 8.278703508023376 55.60260883264327 71.9313492843137 C 0.0 **** -0.24
8577 H 8.933231676545816 55.675605463796444 72.7995422569026 H 0.0 **** 0.06
8578 H 8.483571990072427 56.431324821648744 71.25214059811479 H 0.0 **** 0.06
8579 H 7.239294817967988 55.64567789755627 72.25431411067994 H 0.0 **** 0.06
8580 H 8.461068134998015 54.65799201480294 71.4175458939502 H 0.0 **** 0.06
8581 C 158.74855771557418 7.705203634957513 73.36030124699641 C 0.0 **** -0.24
8582 H 158.37998923145287 7.725949850868943 72.33462656501791 H 0.0 **** 0.06
8583 H 158.9742214056533 8.721541262710588 73.68601192804647 H 0.0 **** 0.06
8584 H 159.65202429828943 7.098132973218611 73.40922984789961 H 0.0 **** 0.06
8585 H 157.9865762819458 7.276126662381159 74.01100773197857 H 0.0 **** 0.06
8586 C 97.81264061936241 89.35054029495987 136.73274018757257 C 0.0 **** -0.24
8587 H 98.21240388384132 88.55096094302934 137.35595913987922 H 0.0 **** 0.06
8588 H 97.81375111039873 89.03259659073154 135.6899193687916 H 0.0 **** 0.06
8589 H 98.43228571721485 90.24067464388858 136.84250120608044 H 0.0 **** 0.06
8590 H 96.79251764421574 89.57716768354484 137.04309454889952 H 0.0 **** 0.06
8591 C 10.342847452262973 19.447915521548396 60.9832299257434 C 0.0 **** -0.24
8592 H 10.796318000775088 18.531617274818302 60.60733149107445 H 0.0 **** 0.06
8593 H 10.232986719138879 20.1615994882535 60.16561171626017 H 0.0 **** 0.06
8594 H 10.978978044087611 19.876617679078947 61.75697083291716 H 0.0 **** 0.06
8595 H 9.361934247170943 19.222528064652607 61.40263960352348 H 0.0 **** 0.06
8596 C 55.52400476525507 38.90689217570838 38.35240052211289 C 0.0 **** -0.24
8597 H 56.518443331275336 38.54754356248259 38.08537201847443 H 0.0 **** 0.06
8598 H 55.48493456290957 39.9889559268953 38.23357625892575 H 0.0 **** 0.06
8599 H 55.310362001535665 38.646550387638044 39.38922770749686 H 0.0 **** 0.06
8600 H 54.78393141653484 38.441161733702685 37.701408753536285 H 0.0 **** 0.06
8601 C 177.09407325455854 135.49624457100865 18.326485443151682 C 0.0 **** -0.24
8602 H 176.40674629683704 135.68631942401782 17.5012364396502 H 0.0 **** 0.06
8603 H 178.1194705104468 135.62264149117433 17.98088460174941 H 0.0 **** 0.06
8604 H 176.95506359314294 134.4769050139701 18.687109722475867 H 0.0 **** 0.06
8605 H 176.8924031982424 136.19820962865344 19.135169505868873 H 0.0 **** 0.06
8606 C 25.181885639396626 163.96168124453303 0.8706197325663538 C 0.0 **** -0.24
8607 H 25.1642716820665 164.81762340000876 1.5454556109041846 H 0.0 **** 0.06
8608 H 24.94820081218839 163.0549145226358 1.4273316571470502 H 0.0 **** 0.06
8609 H 26.172914678248503 163.8700912317728 0.42532498585308076 H 0.0 **** 0.06
8610 H 24.442501963522147 164.1055736632058 0.08306438595906229 H 0.0 **** 0.06
8611 C 184.81509877866458 124.83199980993263 101.83691681716203 C 0.0 **** -0.24
8612 H 184.23706696603602 125.48983283642886 101.18783391281187 H 0.0 **** 0.06
8613 H 184.14057623694492 124.15985410597568 102.366945275646 H 0.0 **** 0.06
8614 H 185.37223699551413 125.43098762105922 102.5560004369105 H 0.0 **** 0.06
8615 H 185.51023800535143 124.24754224990866 101.23344145095894 H 0.0 **** 0.06
8616 C 99.9404795417781 160.9125663080476 163.54155370596484 C 0.0 **** -0.24
8617 H 99.87773190779518 161.71618282890904 164.27402204251763 H 0.0 **** 0.06
8618 H 99.8793596774783 161.33045396864634 162.5367701748127 H 0.0 **** 0.06
8619 H 99.11637349080914 160.21547345938114 163.69609974527867 H 0.0 **** 0.06
8620 H 100.88853731322791 160.38593252120194 163.6590911012609 H 0.0 **** 0.06
8621 C 92.62179789622647 140.57405047441804 94.5162406184239 C 0.0 **** -0.24
8622 H 91.93377907613797 141.4156227129669 94.5983439575734 H 0.0 **** 0.06
8623 H 92.25068208605006 139.87292109194465 93.76818089881107 H 0.0 **** 0.06
8624 H 92.69600626869507 140.07122033483373 95.48042921429447 H 0.0 **** 0.06
8625 H 93.60630267398625 140.9360682365311 94.21883655163461 H 0.0 **** 0.06
8626 C 5.902317365285228 173.4064469986041 163.4712504352043 C 0.0 **** -0.24
8627 H 6.716632341706259 174.12512775874677 163.55222404012315 H 0.0 **** 0.06
8628 H 6.186707122932091 172.47783605757468 163.96742973355452 H 0.0 **** 0.06
8629 H 5.695360383986554 173.2079744036294 162.4193525635243 H 0.0 **** 0.06
8630 H 5.009561325456332 173.81412017531096 163.94666703261413 H 0.0 **** 0.06
8631 C 76.83098319521473 134.899413837347 189.84304209400148 C 0.0 **** -0.24
8632 H 76.33976244760834 134.93630333510583 190.81493766748957 H 0.0 **** 0.06
8633 H 76.16857093701053 135.3181272541516 189.0853873189406 H 0.0 **** 0.06
8634 H 77.0620628288359 133.86443137499296 189.59253426694215 H 0.0 **** 0.06
8635 H 77.75349128516143 135.4781251474378 189.8809064556437 H 0.0 **** 0.06
8636 C 162.6183264844348 132.33660061876122 62.45755581306071 C 0.0 **** -0.24
8637 H 162.31281599472982 131.71358147732496 63.29840192339833 H 0.0 **** 0.06
8638 H 163.53978368403594 132.86084868190608 62.710196412016614 H 0.0 **** 0.06
8639 H 161.83397516410275 133.06251104400036 62.240775357910934 H 0.0 **** 0.06
8640 H 162.78473195094693 131.70888432325972 61.58214210819631 H 0.0 **** 0.06
8641 C 4.967262038435663 180.0940083507094 197.36071160697293 C 0.0 **** -0.24
8642 H 4.421651841357317 181.00176583138708 197.10457583333596 H 0.0 **** 0.06
8643 H 4.306900853197931 179.4120197955609 197.89649831944814 H 0.0 **** 0.06
8644 H 5.818529817583148 180.34925855550725 197.99270623335653 H 0.0 **** 0.06
8645 H 5.32336744650469 179.61441557676295 196.44908921422467 H 0.0 **** 0.06
8646 C 195.06981016044995 184.04881341451596 15.582555426979681 C 0.0 **** -0.24
8647 H 195.5766628135833 184.545514544566 16.410308453280038 H 0.0 **** 0.06
8648 H 195.37474663778153 183.00225717583203 15.54665977547721 H 0.0 **** 0.06
8649 H 195.33860576906488 184.5386432260743 14.647141968152283 H 0.0 **** 0.06
8650 H 193.9918572023479 184.10931450812348 15.727798983294264 H 0.0 **** 0.06
8651 C 131.18423936653332 52.82473086985985 42.74722939463388 C 0.0 **** -0.24
8652 H 132.23017557467534 52.60442217221987 42.529908792470465 H 0.0 **** 0.06
8653 H 131.10713359990297 53.817995167685694 43.18915745625057 H 0.0 **** 0.06
8654 H 130.79488831729037 52.08459470434741 43.44503084262696 H 0.0 **** 0.06
8655 H 130.60784989279136 52.79158365846047 41.82273595641277 H 0.0 **** 0.06
8656 C 161.4045710994526 46.61755169858725 106.22366150799394 C 0.0 **** -0.24
8657 H 161.70149595085553 47.64020854231427 105.98948783177107 H 0.0 **** 0.06
8658 H 160.5785869403253 46.63316259422919 106.93515020380991 H 0.0 **** 0.06
8659 H 162.25047013963442 46.08420517907075 106.65878104659504 H 0.0 **** 0.06
8660 H 161.0883587885864 46.11315186732304 105.31007172717196 H 0.0 **** 0.06
8661 C 153.58325208892853 29.229790300952573 121.67805672886607 C 0.0 **** -0.24
8662 H 153.92685282910168 29.578369255692166 122.65282488665525 H 0.0 **** 0.06
8663 H 153.5973331922989 28.140245089448285 121.65708939081719 H 0.0 **** 0.06
8664 H 154.24277516262646 29.618017531677538 120.90205375855294 H 0.0 **** 0.06
8665 H 152.56815547045323 29.585315423739928 121.50322421165936 H 0.0 **** 0.06
8666 C 17.896410617505865 10.516109492440478 119.46525311460348 C 0.0 **** -0.24
8667 H 18.18279199239433 9.520160135910388 119.12724975475749 H 0.0 **** 0.06
8668 H 18.42386991536928 10.752045736205403 120.39018634892179 H 0.0 **** 0.06
8669 H 16.820854046203877 10.544379666312132 119.64197481031226 H 0.0 **** 0.06
8670 H 18.15726375057659 11.247637108302499 118.70114405853573 H 0.0 **** 0.06
8671 C 113.5742674960851 48.49433802225509 139.17142658748213 C 0.0 **** -0.24
8672 H 113.77778414140059 48.20173670655036 138.14061614906956 H 0.0 **** 0.06
8673 H 113.3951202639829 49.56869804500376 139.21528427368798 H 0.0 **** 0.06
8674 H 114.43172907899663 48.2427348787965 139.79630353065852 H 0.0 **** 0.06
8675 H 112.69389290820581 47.9630482919774 139.53189221930586 H 0.0 **** 0.06
8676 C 87.71748503729944 48.87102849153749 21.279062427939152 C 0.0 **** -0.24
8677 H 88.1545739409988 49.21767363698335 22.2157556149414 H 0.0 **** 0.06
8678 H 88.50852759719751 48.50757539358169 20.623196439885277 H 0.0 **** 0.06
8679 H 87.1941845749499 49.695473661570546 20.795180767572617 H 0.0 **** 0.06
8680 H 87.01459500875427 48.06437892926964 21.483238179580496 H 0.0 **** 0.06
8681 C 153.92989782427662 159.4316415113043 24.87681933629497 C 0.0 **** -0.24
8682 H 153.75967064600115 160.24244506931984 24.168773453662354 H 0.0 **** 0.06
8683 H 154.7826085780707 158.83611387868717 24.550241782881614 H 0.0 **** 0.06
8684 H 153.0420901070655 158.80022263582862 24.925649333999118 H 0.0 **** 0.06
8685 H 154.13412537795577 159.84793898727926 25.86394457091471 H 0.0 **** 0.06
8686 C 1.9300830317819972 145.55739526175046 142.78799205944716 C 0.0 **** -0.24
8687 H 1.4275921404304341 146.0801602285851 143.60214093223294 H 0.0 **** 0.06
8688 H 1.6261222974081022 144.51085922333803 142.786626619431 H 0.0 **** 0.06
8689 H 3.0094745347136893 145.62215294891388 142.9269025267337 H 0.0 **** 0.06
8690 H 1.657996547996234 146.01661198720066 141.83835497250288 H 0.0 **** 0.06
8691 C 127.1520568277542 113.37872603469873 146.373467486674 C 0.0 **** -0.24
8692 H 128.0435345367781 113.98731245727174 146.52674420946101 H 0.0 **** 0.06
8693 H 126.35014514261263 114.00344954416977 145.97892358818592 H 0.0 **** 0.06
8694 H 126.84209269043973 112.94450186713505 147.3233476171348 H 0.0 **** 0.06
8695 H 127.37442623357364 112.58220683447652 145.66412858975633 H 0.0 **** 0.06
8696 C 160.75554055290127 49.28481745559638 68.26823386601302 C 0.0 **** -0.24
8697 H 160.5562535507651 50.25136987830382 68.73181859767544 H 0.0 **** 0.06
8698 H 161.49675067127532 48.74645622386274 68.85820878877354 H 0.0 **** 0.06
8699 H 161.1367055742428 49.439195581550095 67.2580455986897 H 0.0 **** 0.06
8700 H 159.83326697205104 48.70589425078818 68.22465592048565 H 0.0 **** 0.06
8701 C 58.26874402985857 22.295941638884983 45.572125783460024 C 0.0 **** -0.24
8702 H 58.86488906608503 22.98457318747083 44.97362318359683 H 0.0 **** 0.06
8703 H 58.00286286481665 22.772220611101318 46.516416656650875 H 0.0 **** 0.06
8704 H 58.84672219693229 21.39334481538006 45.771725145285785 H 0.0 **** 0.06
8705 H 57.36173563328509 22.03331729485285 45.02791360211256 H 0.0 **** 0.06
8706 C 156.41066539445347 109.31637597755582 129.08724540254866 C 0.0 **** -0.24
8707 H 155.8848439514577 108.36990324513079 128.96253833073877 H 0.0 **** 0.06
8708 H 156.5661786366765 109.77586917911646 128.11048886226365 H 0.0 **** 0.06
8709 H 157.37479855364407 109.13683282121559 129.56288306601903 H 0.0 **** 0.06
8710 H 155.81467843815938 109.9822920317823 129.7120926319525 H 0.0 **** 0.06
8711 C 2.414756595071559 28.52136675418653 137.05087330123754 C 0.0 **** -0.24
8712 H 2.0414518274566475 29.28677396745313 137.73140767630645 H 0.0 **** 0.06
8713 H 2.0114103592002337 27.55099278788707 137.3409110040966 H 0.0 **** 0.06
8714 H 3.5027685760976084 28.492055682159645 137.09817494842733 H 0.0 **** 0.06
8715 H 2.1013151584375223 28.755773292239112 136.03380903952637 H 0.0 **** 0.06
8716 C 14.223608007881069 101.99777847116133 49.84342416399008 C 0.0 **** -0.24
8717 H 13.940251268751815 102.85926763770021 50.447617050179815 H 0.0 **** 0.06
8718 H 15.24997839627099 101.71261846365849 50.07755086039742 H 0.0 **** 0.06
8719 H 14.150702478161001 102.25453647206922 48.78692201981147 H 0.0 **** 0.06
8720 H 13.555227154483447 101.16480408236617 50.06154428207472 H 0.0 **** 0.06
8721 C 33.75122487250516 41.550925719416284 175.42807677052312 C 0.0 **** -0.24
8722 H 33.19582011584281 42.43987356582683 175.12706847985135 H 0.0 **** 0.06
8723 H 33.865082439394456 40.887385352536356 174.57076392145294 H 0.0 **** 0.06
8724 H 33.20886942750768 41.03370415994671 176.21838182048174 H 0.0 **** 0.06
8725 H 34.73483156601975 41.84389597744327 175.79395374817705 H 0.0 **** 0.06
8726 C 36.11266579389314 42.01411192324474 137.9628215163854 C 0.0 **** -0.24
8727 H 36.437899386952324 41.78264266184871 136.9491382584052 H 0.0 **** 0.06
8728 H 35.47211457248278 42.895591235578536 137.94697773687201 H 0.0 **** 0.06
8729 H 36.98446029225872 42.20872096204397 138.5887699102009 H 0.0 **** 0.06
8730 H 35.557416610889334 41.16787413332969 138.36733434549504 H 0.0 **** 0.06
8731 C 101.74457545208622 135.0736043198723 88.78312099992161 C 0.0 **** -0.24
8732 H 101.00343330179902 134.28387817327086 88.66664965290641 H 0.0 **** 0.06
8733 H 102.72727231766493 134.62864263783774 88.94797158028217 H 0.0 **** 0.06
8734 H 101.47968658123008 135.6970542746862 89.63722914750878 H 0.0 **** 0.06
8735 H 101.76962198180306 135.68458175788112 87.88063004118771 H 0.0 **** 0.06
8736 C 44.01420679998408 77.47011391540023 150.28948092850274 C 0.0 **** -0.24
8737 H 43.29484439611025 77.47047741581638 151.10784836600163 H 0.0 **** 0.06
8738 H 43.48605016353005 77.37465737521718 149.3404660122018 H 0.0 **** 0.06
8739 H 44.700490099264556 76.63083404191738 150.40934019961014 H 0.0 **** 0.06
8740 H 44.57815947273828 78.40329453912642 150.299825376867 H 0.0 **** 0.06
8741 C 111.09049944032893 169.12145390351185 150.7151899216803 C 0.0 **** -0.24
8742 H 110.03340206821056 168.97981728898458 150.94053388499586 H 0.0 **** 0.06
8743 H 111.65472479438998 169.18188138058014 151.6461238418932 H 0.0 **** 0.06
8744 H 111.2205021806956 170.04435690516536 150.1505192154872 H 0.0 **** 0.06
8745 H 111.45213133529634 168.2805828460003 150.1244726533342 H 0.0 **** 0.06
8746 C 40.26450603575002 147.87493997806573 146.00317119350905 C 0.0 **** -0.24
8747 H 40.20550429200591 147.7291585322261 147.08125524531755 H 0.0 **** 0.06
8748 H 39.462721366143796 148.5414879854571 145.6823038954528 H 0.0 **** 0.06
8749 H 40.15945218115492 146.91325272564958 145.50045058580088 H 0.0 **** 0.06
8750 H 41.22784365509156 148.3161779680912 145.7470513893241 H 0.0 **** 0.06
8751 C 21.96551836793236 11.269985370550351 76.94382648169287 C 0.0 **** -0.24
8752 H 21.273180241193813 10.444440152451719 76.77662388346904 H 0.0 **** 0.06
8753 H 22.883469045992967 11.093217725894121 76.38263894608508 H 0.0 **** 0.06
8754 H 22.196482404168222 11.339764307581774 78.00634385840137 H 0.0 **** 0.06
8755 H 21.508774358980673 12.200814077644864 76.60944573466436 H 0.0 **** 0.06
8756 C 142.1841283636484 126.61127423695169 167.93123689609737 C 0.0 **** -0.24
8757 H 142.63565533967076 125.83632801179274 168.55111465224957 H 0.0 **** 0.06
8758 H 141.5850520912489 127.27369926955515 168.5564251783384 H 0.0 **** 0.06
8759 H 141.54643543924615 126.14793124806314 167.1775707112656 H 0.0 **** 0.06
8760 H 142.96853253860158 127.18604843558572 167.43950589317257 H 0.0 **** 0.06
8761 C 9.432179446995178 191.98919064749117 70.48523217613734 C 0.0 **** -0.24
8762 H 9.00919688491112 191.0667142997159 70.088075013697 H 0.0 **** 0.06
8763 H 10.249640671245004 191.75025561705075 71.16595671200864 H 0.0 **** 0.06
8764 H 8.661136363031773 192.54066117584784 71.02275193347214 H 0.0 **** 0.06
8765 H 9.809832300145672 192.59824001189676 69.6640014692253 H 0.0 **** 0.06
8766 C 37.08859024315433 148.86270731811987 62.785644138873295 C 0.0 **** -0.24
8767 H 36.73620703760287 149.32421324852967 61.86379653195162 H 0.0 **** 0.06
8768 H 38.00878902492511 148.3126041898384 62.586776216719926 H 0.0 **** 0.06
8769 H 36.328871889951046 148.17590054923343 63.16190497799205 H 0.0 **** 0.06
8770 H 37.27959130546225 149.63561115826477 63.52913112510663 H 0.0 **** 0.06
8771 C 31.09322470057846 65.31781118420759 62.096170183162045 C 0.0 **** -0.24
8772 H 30.19334005995738 65.85105255810461 62.40448978486988 H 0.0 **** 0.06
8773 H 31.034153889380676 64.2827443123781 62.434050209483175 H 0.0 **** 0.06
8774 H 31.966545286278233 65.79550738033977 62.53868137035289 H 0.0 **** 0.06
8775 H 31.175404874506384 65.3427331863559 61.010364050708944 H 0.0 **** 0.06
8776 C 149.81466668796435 31.014751473083862 108.73976658141581 C 0.0 **** -0.24
8777 H 148.9848379368911 31.722308813250095 108.71443724366628 H 0.0 **** 0.06
8778 H 149.4224360218396 29.99793918598546 108.7769496691044 H 0.0 **** 0.06
8779 H 150.42377539164235 31.202005718590954 109.6241460922553 H 0.0 **** 0.06
8780 H 150.42458751472375 31.13833552816918 107.84505420197334 H 0.0 **** 0.06
8781 C 165.75850294240698 18.257794696827318 178.82181471102786 C 0.0 **** -0.24
8782 H 166.05646342585231 18.368113879190844 179.86428097027073 H 0.0 **** 0.06
8783 H 166.00037968724124 19.170150634174377 178.27626455263754 H 0.0 **** 0.06
8784 H 164.68511391313467 18.076502737427063 178.76849590863006 H 0.0 **** 0.06
8785 H 166.29075065089367 17.416664764867022 178.37870245006854 H 0.0 **** 0.06
8786 C 62.17235397376349 151.64773075079535 109.33029379619123 C 0.0 **** -0.24
8787 H 61.74902955378154 152.05776685002797 110.2472319158305 H 0.0 **** 0.06
8788 H 61.486844787062 151.82608772022033 108.50237736997545 H 0.0 **** 0.06
8789 H 62.3268954167349 150.57565240267343 109.45040054322382 H 0.0 **** 0.06
8790 H 63.126446509911815 152.1313015659979 109.12338957579013 H 0.0 **** 0.06
8791 C 151.59495435187063 84.45172235430974 4.863495943809198 C 0.0 **** -0.24
8792 H 150.79615384140402 83.84215301835852 5.286493180075524 H 0.0 **** 0.06
8793 H 151.27449189441882 84.85414726984942 3.902091917837282 H 0.0 **** 0.06
8794 H 152.48434617263018 83.83788565036556 4.7221263366423045 H 0.0 **** 0.06
8795 H 151.82354568532818 85.27210801528548 5.543359193930257 H 0.0 **** 0.06
8796 C 154.15898013979617 127.83384219840471 11.194049845422363 C 0.0 **** -0.24
8797 H 153.07021509691978 127.78233992669374 11.17708266819632 H 0.0 **** 0.06
8798 H 154.55005785695062 127.03594503427729 11.826230232191804 H 0.0 **** 0.06
8799 H 154.47057879632956 128.79898113869882 11.592347179840466 H 0.0 **** 0.06
8800 H 154.54336032492276 127.7163523400221 10.180671487094898 H 0.0 **** 0.06
8801 C 131.9132392198221 122.46702402019946 111.05210817360324 C 0.0 **** -0.24
8802 H 132.5622391344386 123.02139356883768 110.37483409482937 H 0.0 **** 0.06
8803 H 130.87897628071943 122.55540350803156 110.71732921163729 H 0.0 **** 0.06
8804 H 132.00648739385963 122.87343509021647 112.05841352897272 H 0.0 **** 0.06
8805 H 132.2054162746145 121.41664256739372 111.05598981743978 H 0.0 **** 0.06
8806 C 186.384714631284 48.91597071329781 117.9568986272509 C 0.0 **** -0.24
8807 H 185.73724762749544 48.18544744612109 118.44134150911646 H 0.0 **** 0.06
8808 H 186.00460624658217 49.91981770044771 118.14718402089488 H 0.0 **** 0.06
8809 H 186.40040496123987 48.73066758331032 116.882146897832 H 0.0 **** 0.06
8810 H 187.39522235045104 48.82771978893015 118.35517565898249 H 0.0 **** 0.06
8811 C 168.7597450058584 177.2104769503895 180.4459673750526 C 0.0 **** -0.24
8812 H 169.06521113950336 177.6018734641891 179.47451385668262 H 0.0 **** 0.06
8813 H 169.51353838202908 176.51270238668903 180.80956725027048 H 0.0 **** 0.06
8814 H 167.80451042200113 176.6952559823179 180.3453645669595 H 0.0 **** 0.06
8815 H 168.65608180727435 178.03483731926983 181.15262262329577 H 0.0 **** 0.06
8816 C 0.8515960563228333 187.82624644129388 35.6843288651005 C 0.0 **** -0.24
8817 H 0.38643766598844564 188.36578440415767 36.50877360005123 H 0.0 **** 0.06
8818 H 1.5243720143608641 187.06490973315255 36.08219650965057 H 0.0 **** 0.06
8819 H 1.4165301202516005 188.52335330027003 35.065815159898136 H 0.0 **** 0.06
8820 H 0.07915192183204312 187.3486718513458 35.081453044785974 H 0.0 **** 0.06
8821 C 53.62775481846087 123.32271143811474 195.02416470185267 C 0.0 **** -0.24
8822 H 53.696461442636775 124.21509358505605 194.4024668857507 H 0.0 **** 0.06
8823 H 52.678932157587596 122.82043358823597 194.83582139746812 H 0.0 **** 0.06
8824 H 53.685317519009374 123.60785842307743 196.0755944230272 H 0.0 **** 0.06
8825 H 54.45075076818054 122.64975570733282 194.78490559732188 H 0.0 **** 0.06
8826 C 4.22646862105853 180.33508406587393 98.67086519044184 C 0.0 **** -0.24
8827 H 4.702760350506708 179.3546479008815 98.68558938819749 H 0.0 **** 0.06
8828 H 4.76761612459137 180.99058575193794 97.98905833671435 H 0.0 **** 0.06
8829 H 4.242034409111795 180.7604806750161 99.67382834664468 H 0.0 **** 0.06
8830 H 3.1954655526084252 180.23217465996706 98.33492773671972 H 0.0 **** 0.06
8831 C 187.28367825609362 121.20835834502222 87.04736444145394 C 0.0 **** -0.24
8832 H 187.9084761063153 120.41095764085014 87.44843354212122 H 0.0 **** 0.06
8833 H 187.91723796035842 121.99067882724128 86.62905898719572 H 0.0 **** 0.06
8834 H 186.6713370780288 121.62608971649246 87.84698027506613 H 0.0 **** 0.06
8835 H 186.6383260448152 120.80697872195051 86.26670024952637 H 0.0 **** 0.06
8836 C 119.12423024784931 162.61425025743767 186.41716512275002 C 0.0 **** -0.24
8837 H 118.14898692624388 162.20466350752054 186.1547554582513 H 0.0 **** 0.06
8838 H 118.99868601332037 163.40120918999696 187.1604638206014 H 0.0 **** 0.06
8839 H 119.59597650352987 163.02735073593823 185.52519978580887 H 0.0 **** 0.06
8840 H 119.75250436968054 161.82354047023648 186.82670673645336 H 0.0 **** 0.06
8841 C 158.4283187932952 93.58590895845529 134.06073434731056 C 0.0 **** -0.24
8842 H 157.75531231237136 94.37666793227046 133.72855184523328 H 0.0 **** 0.06
8843 H 159.12598526052682 93.34177424049625 133.25924358888398 H 0.0 **** 0.06
8844 H 157.84643707865976 92.70025557564716 134.31815707845246 H 0.0 **** 0.06
8845 H 158.9825344876016 93.92370572658413 134.93542112086976 H 0.0 **** 0.06
8846 C 168.81282588196194 125.43024903620395 146.31869709708855 C 0.0 **** -0.24
8847 H 169.0215953156761 126.3913609866002 145.84943617580336 H 0.0 **** 0.06
8848 H 168.19372739869362 125.58397828861527 147.202507634413 H 0.0 **** 0.06
8849 H 169.75161856694623 124.95734392733885 146.60982725715604 H 0.0 **** 0.06
8850 H 168.28642248522394 124.78874895041315 145.61226537583303 H 0.0 **** 0.06
8851 C 103.23784933459058 72.21388392010516 37.5191182854733 C 0.0 **** -0.24
8852 H 104.25038831053882 72.30109084744248 37.91392136230604 H 0.0 **** 0.06
8853 H 102.86550523933892 73.20395719908277 37.25250714612497 H 0.0 **** 0.06
8854 H 102.58897497965577 71.77289761273676 38.27532580622443 H 0.0 **** 0.06
8855 H 103.24719557586133 71.57950583406887 36.63274772207777 H 0.0 **** 0.06
8856 C 190.65404114781472 15.377725312314283 64.34900637580904 C 0.0 **** -0.24
8857 H 190.232308672984 16.140868427441035 65.003325864928 H 0.0 **** 0.06
8858 H 189.9921338887516 15.225452676464784 63.49593455739574 H 0.0 **** 0.06
8859 H 190.75761915945236 14.443976509589305 64.90040769975144 H 0.0 **** 0.06
8860 H 191.63304583971407 15.702684711210054 63.997100308819086 H 0.0 **** 0.06
8861 C 174.69360940184927 135.68731726489614 147.96104499795604 C 0.0 **** -0.24
8862 H 174.66319151859045 134.61521755065826 148.15426152879894 H 0.0 **** 0.06
8863 H 175.72556664296306 135.99932341969486 147.7988750112106 H 0.0 **** 0.06
8864 H 174.2832521914316 136.22185530307786 148.8182974388738 H 0.0 **** 0.06
8865 H 174.10198026096762 135.91338170741176 147.07434014620497 H 0.0 **** 0.06
8866 C 105.0360293720646 190.37625098608413 187.53651857641705 C 0.0 **** -0.24
8867 H 103.98627615894839 190.66926272952426 187.56383162275694 H 0.0 **** 0.06
8868 H 105.33276553565264 189.99929473009593 188.51538440863155 H 0.0 **** 0.06
8869 H 105.64689263187091 191.24078272642828 187.2786996338965 H 0.0 **** 0.06
8870 H 105.17549233995067 189.59647601163465 186.78784257823557 H 0.0 **** 0.06
8871 C 152.95584921412112 31.51646653948933 99.1457896740182 C 0.0 **** -0.24
8872 H 152.29037826165217 31.697641264666274 99.99049544321969 H 0.0 **** 0.06
8873 H 153.5213034172046 32.42304996912259 98.9285623111609 H 0.0 **** 0.06
8874 H 152.36600716115262 31.23665454546567 98.27300832699146 H 0.0 **** 0.06
8875 H 153.64442689275057 30.708195644078913 99.39359330307809 H 0.0 **** 0.06
8876 C 145.12513527898605 41.11896386454001 6.535670003120572 C 0.0 **** -0.24
8877 H 146.13529683131972 41.28434516081393 6.9090683533318895 H 0.0 **** 0.06
8878 H 144.619124744106 42.07868208617111 6.422462250183514 H 0.0 **** 0.06
8879 H 144.57412298410367 40.49868255433637 7.242488385922826 H 0.0 **** 0.06
8880 H 145.17166589176168 40.61630653955126 5.569766182078126 H 0.0 **** 0.06
8881 C 78.3528340129774 118.8275651765039 18.94996558535047 C 0.0 **** -0.24
8882 H 78.01740553692002 118.23375945074017 19.800439092734678 H 0.0 **** 0.06
8883 H 78.65129778276682 118.16424362020658 18.13802557637507 H 0.0 **** 0.06
8884 H 79.2021550306603 119.44196617541999 19.24851189803036 H 0.0 **** 0.06
8885 H 77.54033679549418 119.47182044876223 18.613687274493486 H 0.0 **** 0.06
8886 C 173.26852557264127 3.0989527416784597 27.866148262650086 C 0.0 **** -0.24
8887 H 172.18969740014225 3.0174533189548285 27.73446570777452 H 0.0 **** 0.06
8888 H 173.5173313775394 4.101324759461427 28.213712181593962 H 0.0 **** 0.06
8889 H 173.76617651391942 2.9087032040948486 26.914791676328548 H 0.0 **** 0.06
8890 H 173.6001589427551 2.3666343401160503 28.602385828609954 H 0.0 **** 0.06
8891 C 165.8725176746242 54.17476197947366 62.24921312508411 C 0.0 **** -0.24
8892 H 166.80192967353847 53.69214886748671 61.948772484302935 H 0.0 **** 0.06
8893 H 165.3919279124667 53.58439978226747 63.03003363079432 H 0.0 **** 0.06
8894 H 165.20748306480195 54.24863965924163 61.38794500830886 H 0.0 **** 0.06
8895 H 166.08719934241233 55.17347227017103 62.628518020322474 H 0.0 **** 0.06
8896 C 107.74114211384685 156.6951179579339 140.74468197720591 C 0.0 **** -0.24
8897 H 108.10565150091617 155.67184108388437 140.64912021936158 H 0.0 **** 0.06
8898 H 106.73490714397462 156.76237193782902 140.33135793377156 H 0.0 **** 0.06
8899 H 108.40344900804837 157.3690171994211 140.2010349614421 H 0.0 **** 0.06
8900 H 107.72148852446819 156.97617795188745 141.79730426618872 H 0.0 **** 0.06
8901 C 124.92378585295788 118.61146197995294 21.41358752886184 C 0.0 **** -0.24
8902 H 124.72850302013694 119.27027285757958 22.2598573027486 H 0.0 **** 0.06
8903 H 125.51731084371792 119.14240975567554 20.66863300041601 H 0.0 **** 0.06
8904 H 123.97823438577197 118.29958368792705 20.96982628719661 H 0.0 **** 0.06
8905 H 125.47109516220476 117.73358161862973 21.75603352508611 H 0.0 **** 0.06
8906 C 161.53947509460448 48.554450357344535 100.50273226310563 C 0.0 **** -0.24
8907 H 162.61636519188104 48.529037777133226 100.67081144684232 H 0.0 **** 0.06
8908 H 161.1377219169311 47.54349606561985 100.57429689410714 H 0.0 **** 0.06
8909 H 161.33620035088853 48.95749495644603 99.5105356522584 H 0.0 **** 0.06
8910 H 161.06929202954896 49.18735382059356 101.25535751745005 H 0.0 **** 0.06
8911 C 88.82071390806573 124.49994333636755 20.566938899355506 C 0.0 **** -0.24
8912 H 89.90989875318121 124.49517613826563 20.62183294739401 H 0.0 **** 0.06
8913 H 88.48041768881058 123.61064420805005 20.03603379033393 H 0.0 **** 0.06
8914 H 88.48862473612473 125.39109404796937 20.03530100459136 H 0.0 **** 0.06
8915 H 88.40684242139673 124.50277101933952 21.575235520387764 H 0.0 **** 0.06
8916 C 75.04736344334968 13.711793239257304 150.7030197095752 C 0.0 **** -0.24
8917 H 74.89581036723217 14.717449312951203 150.31082306309426 H 0.0 **** 0.06
8918 H 76.10897075673796 13.468412854683521 150.6784726983768 H 0.0 **** 0.06
8919 H 74.49559667170828 12.997555487090153 150.09175990557483 H 0.0 **** 0.06
8920 H 74.68627839674689 13.664731782187346 151.73055389278332 H 0.0 **** 0.06
8921 C 46.66991640947728 191.25130276665868 55.576624159566904 C 0.0 **** -0.24
8922 H 45.69813283358614 191.7448450098289 55.59266848517436 H 0.0 **** 0.06
8923 H 46.67719523253035 190.43971554337188 56.30451143770466 H 0.0 **** 0.06
8924 H 47.4472284189095 191.9730746836624 55.828399917019 H 0.0 **** 0.06
8925 H 46.85559912268823 190.8488822787379 54.58103119406874 H 0.0 **** 0.06
8926 C 86.03457028162734 122.50311726597184 18.36635271072649 C 0.0 **** -0.24
8927 H 85.1586752175852 121.87418212166276 18.525469343015942 H 0.0 **** 0.06
8928 H 85.81396225400744 123.24679820834007 17.60117206695473 H 0.0 **** 0.06
8929 H 86.87193230788398 121.88452356990302 18.041166009829894 H 0.0 **** 0.06
8930 H 86.29460838870932 123.00496071618574 19.29802486509203 H 0.0 **** 0.06
8931 C 167.20982157242537 60.28512310987543 39.44860474455774 C 0.0 **** -0.24
8932 H 166.31774744963275 60.84691810903507 39.727401880627866 H 0.0 **** 0.06
8933 H 167.0487835677434 59.22618677194521 39.6489825404263 H 0.0 **** 0.06
8934 H 168.05876088891017 60.64043033323236 40.03233540781103 H 0.0 **** 0.06
8935 H 167.41193700496416 60.428963233851164 38.38735545892098 H 0.0 **** 0.06
8936 C 187.17410036243894 61.72225124587463 113.42298917648318 C 0.0 **** -0.24
8937 H 187.08155452405697 61.03268604195004 114.26107672804136 H 0.0 **** 0.06
8938 H 188.0278167602475 62.380654982728984 113.5856161369797 H 0.0 **** 0.06
8939 H 186.26551830432072 62.31893527749082 113.34120595430653 H 0.0 **** 0.06
8940 H 187.32056187092275 61.15735455240065 112.5021328120377 H 0.0 **** 0.06
8941 C 104.33695361936697 94.40519148594396 75.44940010639607 C 0.0 **** -0.24
8942 H 104.3349728625044 93.69201906467427 76.2736518000412 H 0.0 **** 0.06
8943 H 104.91401091076096 95.28570363360768 75.73192961455021 H 0.0 **** 0.06
8944 H 103.31250248962579 94.69975671422304 75.22175368940765 H 0.0 **** 0.06
8945 H 104.78558254114796 93.94269435585468 74.56995983667446 H 0.0 **** 0.06
8946 C 26.875078327740255 196.85281671142897 131.72439784841944 C 0.0 **** -0.24
8947 H 27.051743753144535 197.22638715536465 130.71549044668757 H 0.0 **** 0.06
8948 H 27.406345318175227 195.91042588339326 131.86182644390806 H 0.0 **** 0.06
8949 H 25.80638309528399 196.69354459373164 131.8704615000241 H 0.0 **** 0.06
8950 H 27.2357591040319 197.58221352404792 132.44927255333857 H 0.0 **** 0.06
8951 C 176.12464999508836 188.61348162525104 95.26100473553046 C 0.0 **** -0.24
8952 H 176.70180592083364 188.47959436484376 96.17602873825803 H 0.0 **** 0.06
8953 H 175.20569366970648 189.1533088448358 95.48774800483329 H 0.0 **** 0.06
8954 H 175.88004636877025 187.63907576298303 94.83976260264748 H 0.0 **** 0.06
8955 H 176.71258913866737 189.18322051118335 94.54190193891046 H 0.0 **** 0.06
8956 C 159.52361907458612 195.34423346709963 109.20046625184213 C 0.0 **** -0.24
8957 H 159.8309543968502 195.69106172838332 110.18668165593857 H 0.0 **** 0.06
8958 H 159.27884631602336 196.20204631860477 108.57348052047351 H 0.0 **** 0.06
8959 H 158.6466161767551 194.70343991918645 109.29794062453183 H 0.0 **** 0.06
8960 H 160.3364438186537 194.77988531141125 108.74413549242666 H 0.0 **** 0.06
8961 C 159.7648259320052 74.20613773256176 59.1705227612419 C 0.0 **** -0.24
8962 H 160.2135377917968 73.21494809425982 59.23810571661487 H 0.0 **** 0.06
8963 H 159.93424245192082 74.6141090524056 58.1742536618066 H 0.0 **** 0.06
8964 H 160.2190520172195 74.86211571052465 59.914177433617525 H 0.0 **** 0.06
8965 H 158.6935747688352 74.13349142746968 59.3564316833579 H 0.0 **** 0.06
8966 C 7.624346486602477 48.63095526442714 126.92084048490051 C 0.0 **** -0.24
8967 H 7.0244778642897145 49.00700835978893 126.09153209388649 H 0.0 **** 0.06
8968 H 6.9647344938708144 48.28913884961722 127.71937932060086 H 0.0 **** 0.06
8969 H 8.266315546400733 49.42785188082911 127.29545252208504 H 0.0 **** 0.06
8970 H 8.239421896479342 47.79961843272703 126.57684340986208 H 0.0 **** 0.06
8971 C 68.3858042432471 130.11681218111931 107.73807478452466 C 0.0 **** -0.24
8972 H 68.59433247137679 130.88741862823014 106.99579696036474 H 0.0 **** 0.06
8973 H 68.24759341499703 130.58191395006924 108.71506088124409 H 0.0 **** 0.06
8974 H 69.22200082538862 129.41898751726487 107.78210542508802 H 0.0 **** 0.06
8975 H 67.47929026122597 129.57892862891308 107.45933587140195 H 0.0 **** 0.06
8976 C 161.38654153210115 51.37581291317298 78.3840591687354 C 0.0 **** -0.24
8977 H 161.59196802007358 50.97299379444212 77.39326940532631 H 0.0 **** 0.06
8978 H 160.41923661525334 51.879510904201084 78.37855984949776 H 0.0 **** 0.06
8979 H 162.16588207088955 52.08784039070582 78.6552654997254 H 0.0 **** 0.06
8980 H 161.36881770182347 50.562754128069884 79.11084730327823 H 0.0 **** 0.06
8981 C 178.93619500241988 48.19357904378958 7.762448229075687 C 0.0 **** -0.24
8982 H 179.86418589152547 48.297049710832255 8.32419852836128 H 0.0 **** 0.06
8983 H 178.13129782698735 48.703888155733154 8.292592413306778 H 0.0 **** 0.06
8984 H 178.69047392475372 47.13740288488293 7.65848320958105 H 0.0 **** 0.06
8985 H 179.05917466911944 48.638181632180675 6.774425839974953 H 0.0 **** 0.06
8986 C 194.35283450710597 86.53491439324102 26.20412326910221 C 0.0 **** -0.24
8987 H 193.36887099231467 86.19917828568714 25.87628221608705 H 0.0 **** 0.06
8988 H 195.01934962771784 86.59901479747765 25.343063195308048 H 0.0 **** 0.06
8989 H 194.75687584034023 85.82499092055343 26.925620975100628 H 0.0 **** 0.06
8990 H 194.26463027329368 87.5164726904112 26.66997625883903 H 0.0 **** 0.06
8991 C 194.44325437857032 93.05406812679303 162.7938751923335 C 0.0 **** -0.24
8992 H 194.89506290194333 93.97018579591335 163.17423838240134 H 0.0 **** 0.06
8993 H 195.22634530052662 92.37292674013906 162.46097475732694 H 0.0 **** 0.06
8994 H 193.78846839030425 93.2934632113697 161.95558765213536 H 0.0 **** 0.06
8995 H 193.8621068778533 92.58097259145657 163.585250497251 H 0.0 **** 0.06
8996 C 112.58351066961924 181.976837760578 133.49526728132923 C 0.0 **** -0.24
8997 H 111.97761361710204 182.75386164918575 133.96167196321693 H 0.0 **** 0.06
8998 H 111.94022498900873 181.3116268084182 132.9188415574941 H 0.0 **** 0.06
8999 H 113.09852329527035 181.40592903694414 134.26743105418228 H 0.0 **** 0.06
9000 H 113.31733602528323 182.43730356354232 132.83305938764488 H 0.0 **** 0.06
9001 C 16.553510021473556 96.57916908173723 141.12926197488108 C 0.0 **** -0.24
9002 H 17.00995189282243 97.53909646731535 141.37029290726744 H 0.0 **** 0.06
9003 H 16.61587942472768 95.92005278860114 141.99569112484917 H 0.0 **** 0.06
9004 H 17.079795603350988 96.1267096070269 140.28877188406176 H 0.0 **** 0.06
9005 H 15.507278952196913 96.73098643784408 140.8631196622743 H 0.0 **** 0.06
9006 C 198.2775965386693 45.78018410907043 45.66244956305036 C 0.0 **** -0.24
9007 H 198.4093350967192 46.123040129862176 44.636310499095885 H 0.0 **** 0.06
9008 H 197.66554364524913 46.498615612360425 46.20999149394319 H 0.0 **** 0.06
9009 H 199.2515672922329 45.691783185441665 46.14416622095922 H 0.0 **** 0.06
9010 H 197.783824873815 44.80880982619033 45.660166506144236 H 0.0 **** 0.06
9011 C 176.48000546066754 161.13469631912085 8.702550400705945 C 0.0 **** -0.24
9012 H 176.59772237109271 160.60339909816548 9.646563990070774 H 0.0 **** 0.06
9013 H 175.63891393115964 161.82421388120474 8.776592674411603 H 0.0 **** 0.06
9014 H 176.2941929313679 160.418575002824 7.902835688673861 H 0.0 **** 0.06
9015 H 177.38987145820923 161.69482231748228 8.484976429770143 H 0.0 **** 0.06
9016 C 52.0101546972879 82.9438628638465 43.32388505473607 C 0.0 **** -0.24
9017 H 52.43890196077106 81.94312536881432 43.36639282940102 H 0.0 **** 0.06
9018 H 52.50976703560798 83.58384369463147 44.05054846447692 H 0.0 **** 0.06
9019 H 50.94600393225903 82.89321425661586 43.55403619410917 H 0.0 **** 0.06
9020 H 52.14657113558306 83.35497391372627 42.32297448362468 H 0.0 **** 0.06
9021 C 156.44644393182188 156.88490336056083 74.40282133814833 C 0.0 **** -0.24
9022 H 156.24871215612364 155.83564242191983 74.18397822923053 H 0.0 **** 0.06
9023 H 155.8360436044013 157.51323768756066 73.75354087900499 H 0.0 **** 0.06
9024 H 157.50049497325972 157.09962367095892 74.22941645607261 H 0.0 **** 0.06
9025 H 156.20052499350277 157.09110966180393 75.4443497882851 H 0.0 **** 0.06
9026 C 92.75538409343073 120.06055240252945 124.4878282467107 C 0.0 **** -0.24
9027 H 92.80533214192928 120.56693622434014 123.52362789896597 H 0.0 **** 0.06
9028 H 93.517388247302 120.46915469967516 125.15241499054568 H 0.0 **** 0.06
9029 H 92.9294103767794 118.99367639779643 124.34795285585088 H 0.0 **** 0.06
9030 H 91.7689200980517 120.21328137416543 124.92756267356259 H 0.0 **** 0.06
9031 C 139.52569323486298 178.9284908665365 96.68948990070808 C 0.0 **** -0.24
9032 H 138.7917382842996 178.54926022956857 95.9782171375451 H 0.0 **** 0.06
9033 H 139.02264471529094 179.20768124001256 97.61615685250294 H 0.0 **** 0.06
9034 H 140.0225160792222 179.8021704413402 96.26740134522504 H 0.0 **** 0.06
9035 H 140.26499272109268 178.15438304779335 96.89612011537321 H 0.0 **** 0.06
9036 C 58.32847681695705 128.07928873104993 135.14639280377352 C 0.0 **** -0.24
9037 H 58.69243027708393 127.16535859158114 134.67674903925717 H 0.0 **** 0.06
9038 H 57.56698504658283 128.53400424046583 134.5127503397039 H 0.0 **** 0.06
9039 H 59.157432177130715 128.77531768983215 135.27562664810205 H 0.0 **** 0.06
9040 H 57.89896528532904 127.84072722588951 136.11836754217182 H 0.0 **** 0.06
9041 C 64.55281326830641 71.43819641528438 3.4033136014003276 C 0.0 **** -0.24
9042 H 63.58229631924138 71.84549571131947 3.6862956016108797 H 0.0 **** 0.06
9043 H 65.0038188557345 72.07175850548617 2.6392424454761 H 0.0 **** 0.06
9044 H 64.42327845004388 70.4307227810283 3.009362760297563 H 0.0 **** 0.06
9045 H 65.20181967151649 71.40618436842624 4.27867901558642 H 0.0 **** 0.06
9046 C 188.18290149309968 71.22510762557269 119.45925491226694 C 0.0 **** -0.24
9047 H 188.98270018053836 70.77315848319759 120.0457041507762 H 0.0 **** 0.06
9048 H 188.1600068126192 72.29888734260469 119.64500914157594 H 0.0 **** 0.06
9049 H 187.22879652530253 70.78505421635978 119.74818461922729 H 0.0 **** 0.06
9050 H 188.36230042406717 71.04253599261283 118.40000267960113 H 0.0 **** 0.06
9051 C 44.35430854877637 190.1637115127146 159.00975556755148 C 0.0 **** -0.24
9052 H 44.15355472712355 191.14162857201276 159.44610724602944 H 0.0 **** 0.06
9053 H 43.46285504677189 189.80829867188532 158.49194858524444 H 0.0 **** 0.06
9054 H 44.621528065441 189.4608140146234 159.79837683541746 H 0.0 **** 0.06
9055 H 45.178402216184224 190.24490393632294 158.30045371658102 H 0.0 **** 0.06
9056 C 43.70396587457549 170.14957733423046 174.92766204452096 C 0.0 **** -0.24
9057 H 43.267712093759656 170.53102271706155 174.00432583992705 H 0.0 **** 0.06
9058 H 42.90724184936511 169.84956523075465 175.6088193404478 H 0.0 **** 0.06
9059 H 44.307046446697484 170.92842022826653 175.39336284152577 H 0.0 **** 0.06
9060 H 44.33316539678066 169.28859311782128 174.70403109158536 H 0.0 **** 0.06
9061 C 74.36593449948793 93.09773252057735 86.3106465622206 C 0.0 **** -0.24
9062 H 73.51088898533999 93.40501317566128 86.913243825633 H 0.0 **** 0.06
9063 H 75.27676173211698 93.17604175957504 86.90457930774585 H 0.0 **** 0.06
9064 H 74.44442469244476 93.7428921934762 85.43519126136937 H 0.0 **** 0.06
9065 H 74.2297522603111 92.06452123816172 85.98903257571482 H 0.0 **** 0.06
9066 C 195.813086802923 20.545044904258035 168.118706202373 C 0.0 **** -0.24
9067 H 195.49232218619662 21.506444110501832 167.71755621898717 H 0.0 **** 0.06
9068 H 195.56702923539274 19.756090697235265 167.40820172758515 H 0.0 **** 0.06
9069 H 195.30258559545211 20.356506564121304 169.0631750983558 H 0.0 **** 0.06
9070 H 196.89037665059874 20.562643537608665 168.28457530873538 H 0.0 **** 0.06
9071 C 103.14612260742908 89.04240142298099 122.62972424953509 C 0.0 **** -0.24
9072 H 102.31821132441544 88.83816403330988 121.95070975720196 H 0.0 **** 0.06
9073 H 103.86016436417017 88.2187539705541 122.58940100024094 H 0.0 **** 0.06
9074 H 102.76618170829934 89.14448175076902 123.64605352368892 H 0.0 **** 0.06
9075 H 103.64055186921715 89.9672846615089 122.33185616940884 H 0.0 **** 0.06
9076 C 46.12065227319438 8.959173529279951 37.82294760149597 C 0.0 **** -0.24
9077 H 46.431551032191706 9.18636425881013 38.843012810996186 H 0.0 **** 0.06
9078 H 46.857731130076644 8.30584204057962 37.35604353482523 H 0.0 **** 0.06
9079 H 46.04231882152011 9.884543083442907 37.252741735499654 H 0.0 **** 0.06
9080 H 45.15183593033251 8.460697630609843 37.8413144153558 H 0.0 **** 0.06
9081 C 181.0116948838491 73.15868294321646 123.91625593265084 C 0.0 **** -0.24
9082 H 180.16084198402302 73.80173171407085 124.1422942331603 H 0.0 **** 0.06
9083 H 180.65304556306114 72.20996281158311 123.5157306764425 H 0.0 **** 0.06
9084 H 181.58170860109294 72.97740316766784 124.82662379997785 H 0.0 **** 0.06
9085 H 181.6494897467546 73.64657337515429 123.17887520922355 H 0.0 **** 0.06
9086 C 35.224456302162665 23.00499662780375 158.0188871970863 C 0.0 **** -0.24
9087 H 35.83398489222732 22.665435245742856 157.1822746112613 H 0.0 **** 0.06
9088 H 35.2552476161064 22.26176077114536 158.81567765969348 H 0.0 **** 0.06
9089 H 34.194853412149584 23.13923032315965 157.68666002433292 H 0.0 **** 0.06
9090 H 35.61258757197338 23.95309229956584 158.39026218659387 H 0.0 **** 0.06
9091 C 53.12614232555919 197.4653994801328 26.96632187044426 C 0.0 **** -0.24
9092 H 52.71013639646702 197.13545810893396 26.01414255386166 H 0.0 **** 0.06
9093 H 53.016725231798375 198.54711148068668 27.054626842068785 H 0.0 **** 0.06
9094 H 54.18226643263469 197.20128884308934 27.012333892700212 H 0.0 **** 0.06
9095 H 52.59343962287653 196.97792767707028 27.782784822556863 H 0.0 **** 0.06
9096 C 68.95782154805443 22.670651391752187 51.23575757383807 C 0.0 **** -0.24
9097 H 68.56462275951037 23.16384131737516 52.12417080598128 H 0.0 **** 0.06
9098 H 68.73787657771175 21.603850197063764 51.286028062950265 H 0.0 **** 0.06
9099 H 70.03671656273195 22.818090845502667 51.18565926463397 H 0.0 **** 0.06
9100 H 68.4915347855844 23.09740312427283 50.347786124528355 H 0.0 **** 0.06
9101 C 76.79971356873222 8.530502476435473 116.0887393406611 C 0.0 **** -0.24
9102 H 76.1580678601166 7.725527694453994 115.72914778524864 H 0.0 **** 0.06
9103 H 77.27510508717921 8.226426130800796 117.02085636402441 H 0.0 **** 0.06
9104 H 76.19837772902463 9.423880826807078 116.26149942041494 H 0.0 **** 0.06
9105 H 77.56418904404279 8.745837929964303 115.34302254043513 H 0.0 **** 0.06
9106 C 131.444476020533 94.37311838291095 54.723015972107405 C 0.0 **** -0.24
9107 H 130.7861602599711 94.57639206219258 55.56727176233056 H 0.0 **** 0.06
9108 H 132.11662889333985 95.21863859973863 54.575802635268275 H 0.0 **** 0.06
9109 H 130.84508762107458 94.22348420034834 53.824369287053045 H 0.0 **** 0.06
9110 H 132.02714652538464 93.47461492376908 54.92514041305277 H 0.0 **** 0.06
9111 C 113.23852943268474 149.57975741807047 98.1522341751843 C 0.0 **** -0.24
9112 H 114.29689525101301 149.83438287624404 98.20500107304079 H 0.0 **** 0.06
9113 H 112.91057996109265 149.18994674202878 99.11599528063127 H 0.0 **** 0.06
9114 H 113.08435228347358 148.82423571894805 97.38264790710898 H 0.0 **** 0.06
9115 H 112.66204597520942 150.47215632182835 97.90557097668014 H 0.0 **** 0.06
9116 C 3.978817466191714 109.04472799417488 28.85451870927568 C 0.0 **** -0.24
9117 H 2.986025282130072 108.70088150369727 29.146469003319623 H 0.0 **** 0.06
9118 H 4.31340848305976 108.48627139488113 27.980176233617556 H 0.0 **** 0.06
9119 H 4.675142890108418 108.88350347975796 29.67758143255594 H 0.0 **** 0.06
9120 H 3.9394193697611968 110.10735672414216 28.61460276842095 H 0.0 **** 0.06
9121 C 181.95241057875907 172.85877177849963 5.315808243189053 C 0.0 **** -0.24
9122 H 181.09785656321077 173.4918704996208 5.5523459841730585 H 0.0 **** 0.06
9123 H 181.93630120757413 171.97310574429213 5.951428301685922 H 0.0 **** 0.06
9124 H 182.87424716249362 173.41440687952115 5.490303653772742 H 0.0 **** 0.06
9125 H 181.90329416170601 172.55666915876046 4.270070585580044 H 0.0 **** 0.06
9126 C 60.76865318674362 83.29676470494667 165.56319253506683 C 0.0 **** -0.24
9127 H 61.09931131279586 83.76689393680076 164.63750448121408 H 0.0 **** 0.06
9128 H 61.63427504006188 83.08801148192313 166.19296996516198 H 0.0 **** 0.06
9129 H 60.25271346844272 82.36435369354331 165.33330864626942 H 0.0 **** 0.06
9130 H 60.08967994972761 83.96752046394744 166.08921794045045 H 0.0 **** 0.06
9131 C 40.52774752429657 110.52894020212352 124.63086493635083 C 0.0 **** -0.24
9132 H 40.844460023650655 109.56897402722058 125.03861708920985 H 0.0 **** 0.06
9133 H 40.28595695166659 110.41233188540818 123.57406243878555 H 0.0 **** 0.06
9134 H 41.33499930307592 111.2531665370216 124.74052106063641 H 0.0 **** 0.06
9135 H 39.648051068848275 110.88003440125999 125.16912292743984 H 0.0 **** 0.06
9136 C 101.56577784148669 113.56583703393883 63.46790901877341 C 0.0 **** -0.24
9137 H 101.7414319030375 112.60114911346852 63.94430439676563 H 0.0 **** 0.06
9138 H 101.33124460664908 113.41302929539177 62.4139827115485 H 0.0 **** 0.06
9139 H 102.46039710248169 114.1821211877998 63.55622605333497 H 0.0 **** 0.06
9140 H 100.73001200093495 114.06540403008978 63.95826089999474 H 0.0 **** 0.06
9141 C 118.95415558869047 159.36206673655937 12.116828726524858 C 0.0 **** -0.24
9142 H 118.92276862774287 160.44832627659036 12.031448661096505 H 0.0 **** 0.06
9143 H 118.91084101549791 159.078317560043 13.16782154788882 H 0.0 **** 0.06
9144 H 119.88042057951589 158.98997675326683 11.676967461796181 H 0.0 **** 0.06
9145 H 118.10338072061188 158.93180029200448 11.588365297864044 H 0.0 **** 0.06
9146 C 196.25073988703545 82.22165333092303 156.5632618009097 C 0.0 **** -0.24
9147 H 196.5798973872316 82.08067193271614 155.53420288720184 H 0.0 **** 0.06
9148 H 195.2424865786733 81.82494104051185 156.6805490496023 H 0.0 **** 0.06
9149 H 196.25367709972653 83.28438783936369 156.8030979834325 H 0.0 **** 0.06
9150 H 196.9284226551262 81.69611988006363 157.23585628063165 H 0.0 **** 0.06
9151 C 126.17427202660696 170.21815674938338 137.0000480534188 C 0.0 **** -0.24
9152 H 125.22836875606868 169.88566514503054 136.57131032506138 H 0.0 **** 0.06
9153 H 126.79339870527389 169.35119479668703 137.23012153245656 H 0.0 **** 0.06
9154 H 125.98139006846247 170.77998371500715 137.91338844471522 H 0.0 **** 0.06
9155 H 126.6932515402757 170.85565977604176 136.28302164101333 H 0.0 **** 0.06
9156 C 10.711499011852368 124.78537569152843 187.45474022749312 C 0.0 **** -0.24
9157 H 11.472177013555715 125.37189090250783 187.97029097601188 H 0.0 **** 0.06
9158 H 11.038609252590412 124.58092555909201 186.43525373067305 H 0.0 **** 0.06
9159 H 9.775814535593348 125.34360399858164 187.43188436215848 H 0.0 **** 0.06
9160 H 10.559696145044747 123.84400082611836 187.98370899309407 H 0.0 **** 0.06
9161 C 74.64596199342662 53.85454800110551 134.9034193767389 C 0.0 **** -0.24
9162 H 74.38815748609159 54.2457507197106 133.91953831746167 H 0.0 **** 0.06
9163 H 73.92291478162718 54.21206522416253 135.63696341770833 H 0.0 **** 0.06
9164 H 75.64395103129982 54.19489730761745 135.17935217485103 H 0.0 **** 0.06
9165 H 74.62852012653138 52.76545725932817 134.87687133118266 H 0.0 **** 0.06
9166 C 54.635917497611786 41.952159243064244 131.00839677347682 C 0.0 **** -0.24
9167 H 54.64104502785656 40.923370610876916 131.3682777783776 H 0.0 **** 0.06
9168 H 54.19248594198376 42.59931424789431 131.7654605409391 H 0.0 **** 0.06
9169 H 54.052207786286544 42.012879691529236 130.09012084965477 H 0.0 **** 0.06
9170 H 55.65903908665919 42.27185078030938 130.81025737722902 H 0.0 **** 0.06
9171 C 124.92918479757822 99.46393198859815 151.0177779099293 C 0.0 **** -0.24
9172 H 125.3658992090979 99.73005658939258 151.98089312849518 H 0.0 **** 0.06
9173 H 124.72065566963101 98.3938650235223 150.9985427187169 H 0.0 **** 0.06
9174 H 125.62856879614094 99.71329831506705 150.2208004288402 H 0.0 **** 0.06
9175 H 124.00179314820082 100.01785024628748 150.87518073038905 H 0.0 **** 0.06
9176 C 83.52761472133511 19.34078594001018 170.63227320942136 C 0.0 **** -0.24
9177 H 84.40244975297361 19.948986582751687 170.40190321893928 H 0.0 **** 0.06
9178 H 83.83098428276105 18.48303583898675 171.23403428681038 H 0.0 **** 0.06
9179 H 83.07475456052734 18.991747373962255 169.70449229372076 H 0.0 **** 0.06
9180 H 82.80525762596892 19.937710716176056 171.18810654630227 H 0.0 **** 0.06
9181 C 22.402014068181245 68.03762350730386 138.71583323019019 C 0.0 **** -0.24
9182 H 21.43850909774673 67.55082465184302 138.5618210593666 H 0.0 **** 0.06
9183 H 22.52415303769635 68.83921164332378 137.98755223407548 H 0.0 **** 0.06
9184 H 23.202213800731386 67.3073544870092 138.59166299047945 H 0.0 **** 0.06
9185 H 22.442593266289578 68.45252168188767 139.7228597994268 H 0.0 **** 0.06
9186 C 134.62697222309777 163.2316682918389 150.45058670418211 C 0.0 **** -0.24
9187 H 134.06135055269266 163.79110426361348 149.70523161476459 H 0.0 **** 0.06
9188 H 134.89240763074574 162.25491020113486 150.04725267482027 H 0.0 **** 0.06
9189 H 134.01891250096907 163.10255505717714 151.34648281952968 H 0.0 **** 0.06
9190 H 135.53447286045957 163.7799598558973 150.70437923142785 H 0.0 **** 0.06
9191 C 6.4346311041645095 191.2711512953336 94.61226058695266 C 0.0 **** -0.24
9192 H 5.939647140293772 192.06736432268622 95.16704193452782 H 0.0 **** 0.06
9193 H 5.811661790619723 190.97648769199023 93.76632304196983 H 0.0 **** 0.06
9194 H 6.587326210642516 190.41329383474718 95.26668663417126 H 0.0 **** 0.06
9195 H 7.397974753017536 191.62658780436422 94.24823234871408 H 0.0 **** 0.06
9196 C 106.28126966630083 7.699657541741587 35.374461025646724 C 0.0 **** -0.24
9197 H 105.51769095019978 7.976483801052062 36.10075051951921 H 0.0 **** 0.06
9198 H 106.38470274037707 6.614087294142578 35.35288437150609 H 0.0 **** 0.06
9199 H 107.23275657498618 8.150041506128524 35.65732960185443 H 0.0 **** 0.06
9200 H 105.98949823849682 8.056080163890933 34.38663157279797 H 0.0 **** 0.06
9201 C 102.77934856676191 100.05994443957428 187.424714923497 C 0.0 **** -0.24
9202 H 102.08761719799284 99.21848500194298 187.38706644913321 H 0.0 **** 0.06
9203 H 103.74340656308442 99.72131941608376 187.80387049806032 H 0.0 **** 0.06
9204 H 102.37864947460642 100.82899899513194 188.08563021749154 H 0.0 **** 0.06
9205 H 102.90568086703524 100.47087446971616 186.42320239879632 H 0.0 **** 0.06
9206 C 164.48278609862984 10.621465315994556 77.23589647135253 C 0.0 **** -0.24
9207 H 164.68513133106052 10.696655006448111 78.30416356949993 H 0.0 **** 0.06
9208 H 164.69403385729046 9.606717480767259 76.89614813257936 H 0.0 **** 0.06
9209 H 165.11664239635545 11.32532044933248 76.69564019123678 H 0.0 **** 0.06
9210 H 163.43596652509578 10.857303614963286 77.04602612991202 H 0.0 **** 0.06
9211 C 65.8686556789368 101.96525865084547 68.00042237371453 C 0.0 **** -0.24
9212 H 66.75493764862142 101.58257265474438 68.507037012028 H 0.0 **** 0.06
9213 H 65.45441707903589 102.79581054295858 68.57142290360207 H 0.0 **** 0.06
9214 H 65.1251723116442 101.17212114279971 67.92071628817106 H 0.0 **** 0.06
9215 H 66.14113311610458 102.3095828626549 67.00235144235292 H 0.0 **** 0.06
9216 C 77.63809566401335 88.60102686846284 45.750351305339365 C 0.0 **** -0.24
9217 H 77.28833448077842 87.65146435124674 46.155539933770314 H 0.0 **** 0.06
9218 H 77.37053291172526 89.40739359488254 46.433457860717354 H 0.0 **** 0.06
9219 H 77.17179891227488 88.77529667526676 44.7802352947852 H 0.0 **** 0.06
9220 H 78.7207699760661 88.56851508594139 45.63197908736008 H 0.0 **** 0.06
9221 C 91.80777974449592 77.11459006540052 124.32961761590576 C 0.0 **** -0.24
9222 H 90.80677462454665 77.11789127552004 123.89874347541917 H 0.0 **** 0.06
9223 H 92.00146768032306 76.14599198960849 124.79076015219061 H 0.0 **** 0.06
9224 H 91.88192962748738 77.89774405467826 125.08272734289145 H 0.0 **** 0.06
9225 H 92.54173151058228 77.29508021252907 123.5431325039483 H 0.0 **** 0.06
9226 C 194.54384974200326 51.904860298776384 8.008057713202682 C 0.0 **** -0.24
9227 H 193.8535840534424 52.74521106150226 8.080158696313937 H 0.0 **** 0.06
9228 H 194.53211032658632 51.34376020690456 8.942830182743798 H 0.0 **** 0.06
9229 H 195.55042843913304 52.27571265989599 7.818269658053488 H 0.0 **** 0.06
9230 H 194.23646550795456 51.252681223015486 7.189634166762431 H 0.0 **** 0.06
9231 C 40.56109736254089 172.32819148332936 108.41819627763101 C 0.0 **** -0.24
9232 H 41.42266193606389 172.63636434175504 109.01077594659472 H 0.0 **** 0.06
9233 H 39.72499974564647 172.9995015866033 108.61652737233075 H 0.0 **** 0.06
9234 H 40.28152150225003 171.3094064097817 108.68677959281999 H 0.0 **** 0.06
9235 H 40.81563696241383 172.36874594329217 107.35919835218942 H 0.0 **** 0.06
9236 C 16.09421582567431 104.72540361871447 97.05476445938427 C 0.0 **** -0.24
9237 H 15.941367241295637 103.97122379689921 97.82712758755781 H 0.0 **** 0.06
9238 H 17.13396839306131 104.7045663258254 96.72806721210316 H 0.0 **** 0.06
9239 H 15.858679110413973 105.71075940750922 97.45725186790514 H 0.0 **** 0.06
9240 H 15.4422041109665 104.51456947632937 96.20719359670619 H 0.0 **** 0.06
9241 C 183.66731727894148 2.7115044159537547 106.2874983211143 C 0.0 **** -0.24
9242 H 182.8442701390693 2.6164408990920265 106.9954877326117 H 0.0 **** 0.06
9243 H 183.53234644036348 3.614879876392763 105.69249383577778 H 0.0 **** 0.06
9244 H 183.6819103318071 1.841551420310509 105.6292927625829 H 0.0 **** 0.06
9245 H 184.60967405842604 2.7711560903024406 106.8317694431338 H 0.0 **** 0.06
9246 C 6.761592678934733 44.47374644825419 40.565825306842896 C 0.0 **** -0.24
9247 H 7.0150689944006785 43.41663159402435 40.64111547784967 H 0.0 **** 0.06
9248 H 5.70961773331814 44.57719603983577 40.30008374948052 H 0.0 **** 0.06
9249 H 7.378370348484083 44.94142865621754 39.798032136239215 H 0.0 **** 0.06
9250 H 6.943892978975697 44.96052450408183 41.52424975436229 H 0.0 **** 0.06
9251 C 144.98947169142488 141.0877361940743 171.51803031504818 C 0.0 **** -0.24
9252 H 145.24048056497773 140.03242294650732 171.61767039330172 H 0.0 **** 0.06
9253 H 144.25179997535048 141.21403727881864 170.72587682791442 H 0.0 **** 0.06
9254 H 145.88865101302153 141.6526479699982 171.2712957926451 H 0.0 **** 0.06
9255 H 144.57818326787327 141.45338879552435 172.45872138157065 H 0.0 **** 0.06
9256 C 153.98640023128647 138.04654367738934 169.39071878423596 C 0.0 **** -0.24
9257 H 154.93290143968994 137.9007272624396 169.91132297084303 H 0.0 **** 0.06
9258 H 153.4354654977761 137.1064296419306 169.3700500901889 H 0.0 **** 0.06
9259 H 154.18136164124851 138.37650719995818 168.37005536451676 H 0.0 **** 0.06
9260 H 153.39794021926792 138.8017326220419 169.9103889903576 H 0.0 **** 0.06
9261 C 68.3199087581307 150.71196495052527 151.35783840954167 C 0.0 **** -0.24
9262 H 68.56362329806603 151.76103653482514 151.190938110201 H 0.0 **** 0.06
9263 H 69.23971522439089 150.13017217137525 151.4175117601703 H 0.0 **** 0.06
9264 H 67.7089756748598 150.34479485816644 150.5331938963427 H 0.0 **** 0.06
9265 H 67.76609024238691 150.6136730648139 152.2919869302672 H 0.0 **** 0.06
9266 C 27.786648607696577 146.9458551181876 198.56979851990542 C 0.0 **** -0.24
9267 H 27.102024286932817 146.5166386567486 199.30133283249506 H 0.0 **** 0.06
9268 H 27.468847837881412 146.66315554228288 197.5656036537431 H 0.0 **** 0.06
9269 H 28.794692762963052 146.56963258421123 198.75138410247223 H 0.0 **** 0.06
9270 H 27.78221892591509 148.03111643910123 198.66142757986452 H 0.0 **** 0.06
9271 C 103.97136645952713 80.57064951463076 181.36008103460142 C 0.0 **** -0.24
9272 H 104.06740480565014 80.10333423667612 182.34005539459912 H 0.0 **** 0.06
9273 H 104.95813448181764 80.66690137048113 180.9060026760676 H 0.0 **** 0.06
9274 H 103.52332528594832 81.55766667201561 181.4708551333567 H 0.0 **** 0.06
9275 H 103.3367961620109 79.95323439167203 180.72476239564952 H 0.0 **** 0.06
9276 C 22.19126123617059 172.64073166629916 103.74847758303983 C 0.0 **** -0.24
9277 H 22.078200935271184 173.5311006692378 104.36713022624338 H 0.0 **** 0.06
9278 H 21.31472126531662 172.00310513820796 103.86605643208873 H 0.0 **** 0.06
9279 H 23.082520658804015 172.0948231206036 104.0562553627538 H 0.0 **** 0.06
9280 H 22.288594243564205 172.9346692752231 102.70262736236793 H 0.0 **** 0.06
9281 C 176.06034219625678 37.62412197680577 51.218652017388195 C 0.0 **** -0.24
9282 H 176.0852463521279 38.41604408784393 51.96796160606959 H 0.0 **** 0.06
9283 H 175.58301142621684 37.99618126432897 50.31226694552993 H 0.0 **** 0.06
9284 H 175.4955012016668 36.77603626943085 51.60642253997139 H 0.0 **** 0.06
9285 H 177.07816249582908 37.30822091883955 50.99073090606237 H 0.0 **** 0.06
9286 C 70.63009336108115 98.22052553822482 122.53060476521034 C 0.0 **** -0.24
9287 H 70.07449321418264 98.77601292150302 123.28504620772338 H 0.0 **** 0.06
9288 H 71.21265330603501 97.43535782173024 123.01389689081341 H 0.0 **** 0.06
9289 H 71.30039928603581 98.89764333364491 122.00157912214948 H 0.0 **** 0.06
9290 H 69.93307968057285 97.77171443297388 121.82211960143925 H 0.0 **** 0.06
9291 C 80.37713973022596 161.8513398687165 169.72288905519827 C 0.0 **** -0.24
9292 H 81.40696767338576 161.73330305877693 170.06067213878322 H 0.0 **** 0.06
9293 H 79.70593198768569 161.35939804365503 170.4274024375747 H 0.0 **** 0.06
9294 H 80.26492983930211 161.39863707407594 168.73676135403514 H 0.0 **** 0.06
9295 H 80.13287291231782 162.91130560289128 169.66570504555034 H 0.0 **** 0.06
9296 C 83.00275888892901 91.20666077707551 197.81550402049373 C 0.0 **** -0.24
9297 H 83.15591531616906 90.21401654378496 197.39117368510398 H 0.0 **** 0.06
9298 H 83.84788040289885 91.84530163845369 197.5587587047442 H 0.0 **** 0.06
9299 H 82.9207704945957 91.12923673233229 198.89911976313252 H 0.0 **** 0.06
9300 H 82.0867878421883 91.63649704158075 197.41142545553623 H 0.0 **** 0.06
9301 C 90.58322337675452 108.37954455947556 160.53389367692603 C 0.0 **** -0.24
9302 H 91.56865279963438 108.6388435691565 160.14763787382049 H 0.0 **** 0.06
9303 H 90.12714711289675 109.2598304836821 160.98586579526375 H 0.0 **** 0.06
9304 H 90.6827721159936 107.59521174360111 161.28503600081902 H 0.0 **** 0.06
9305 H 89.95533966854805 108.02331098051883 159.71702687308536 H 0.0 **** 0.06
9306 C 23.706568235108534 66.78140842370277 18.66239133433595 C 0.0 **** -0.24
9307 H 23.24019059209175 66.20809202519467 17.861524383770615 H 0.0 **** 0.06
9308 H 24.013036516245307 66.1052651587284 19.461297578558572 H 0.0 **** 0.06
9309 H 22.992652701250393 67.50584430649076 19.053820684127714 H 0.0 **** 0.06
9310 H 24.580155198915833 67.30435968739755 18.274206509948527 H 0.0 **** 0.06
9311 C 40.313541367629114 33.514582899734194 58.07775110685526 C 0.0 **** -0.24
9312 H 39.22699792421025 33.56091201749388 58.143596518148684 H 0.0 **** 0.06
9313 H 40.600526689704566 32.757017501893586 57.347158322226505 H 0.0 **** 0.06
9314 H 40.72649681599768 33.25496943648187 59.05236914661009 H 0.0 **** 0.06
9315 H 40.69974190749025 34.48480363098719 57.76577265941171 H 0.0 **** 0.06
9316 C 174.98289605751114 60.449122468062455 64.7600173439056 C 0.0 **** -0.24
9317 H 174.54481247774038 61.04346867650898 63.95822495024211 H 0.0 **** 0.06
9318 H 175.6861939524711 59.73129416604823 64.336453525513 H 0.0 **** 0.06
9319 H 174.1924715403743 59.9158008327085 65.2896991675182 H 0.0 **** 0.06
9320 H 175.50681635781518 61.10590028176108 65.45386537251744 H 0.0 **** 0.06
9321 C 194.32876146951148 103.66608922764928 39.13617446547762 C 0.0 **** -0.24
9322 H 194.88838083993048 104.21594553108145 39.89182640525074 H 0.0 **** 0.06
9323 H 194.3263494525637 102.60543599758913 39.38722144952865 H 0.0 **** 0.06
9324 H 194.7964104748723 103.80786557088157 38.161862627238804 H 0.0 **** 0.06
9325 H 193.30355778442998 104.03446217042253 39.10446557434604 H 0.0 **** 0.06
9326 C 110.09512187644546 26.29465161799982 130.30462610221883 C 0.0 **** -0.24
9327 H 111.02050780948093 25.97185370374109 130.78198557941772 H 0.0 **** 0.06
9328 H 109.5928121108289 25.431654447421522 129.866264961305 H 0.0 **** 0.06
9329 H 110.32353844391523 27.01794808108633 129.52168690575627 H 0.0 **** 0.06
9330 H 109.4446656536768 26.756427144533177 131.0467222716321 H 0.0 **** 0.06
9331 C 87.05841062257167 31.425664134402496 48.89045730227595 C 0.0 **** -0.24
9332 H 87.84392017871389 31.945336634681766 49.43814598136461 H 0.0 **** 0.06
9333 H 86.09094231708227 31.861276100601927 49.143948951777304 H 0.0 **** 0.06
9334 H 87.0638780995676 30.37000441065014 49.160296733208185 H 0.0 **** 0.06
9335 H 87.23320977272965 31.528515736021674 47.819505628855794 H 0.0 **** 0.06
9336 C 144.26109985579558 24.578968208560752 158.5763602238805 C 0.0 **** -0.24
9337 H 144.42865701416747 24.259023786683827 159.6039860372526 H 0.0 **** 0.06
9338 H 144.0445552904622 23.709079564170537 157.95617244369035 H 0.0 **** 0.06
9339 H 145.1530300211823 25.080204860966177 158.2011575201889 H 0.0 **** 0.06
9340 H 143.4161865604599 25.26726414199686 158.54270122817297 H 0.0 **** 0.06
9341 C 136.8674641141744 178.36182075959772 78.17175454931034 C 0.0 **** -0.24
9342 H 136.3425447992074 178.55982102823612 79.10625082384371 H 0.0 **** 0.06
9343 H 136.8919522013041 179.27024497523533 77.56889014845444 H 0.0 **** 0.06
9344 H 136.34712824873702 177.5759425592682 77.62279484360273 H 0.0 **** 0.06
9345 H 137.8859924433709 178.0403602166984 78.38730692069024 H 0.0 **** 0.06
9346 C 167.32603973235766 128.52715678903155 154.54738612614156 C 0.0 **** -0.24
9347 H 166.4060057043132 129.09940904874628 154.42620678791698 H 0.0 **** 0.06
9348 H 168.18336815671415 129.19004510898696 154.42469643505825 H 0.0 **** 0.06
9349 H 167.3645982948632 127.73911217239396 153.7967800014615 H 0.0 **** 0.06
9350 H 167.34924896932358 128.0834978238181 155.54300490239112 H 0.0 **** 0.06
9351 C 135.77808274025642 162.84529645275234 126.79666292624574 C 0.0 **** -0.24
9352 H 135.8883587389887 161.7665339111976 126.68299111491544 H 0.0 **** 0.06
9353 H 135.268647523892 163.0611771301439 127.7364921681887 H 0.0 **** 0.06
9354 H 135.1917275817073 163.2395542821971 125.9664225490096 H 0.0 **** 0.06
9355 H 136.762809882978 163.31275632914492 126.80058762589039 H 0.0 **** 0.06
9356 C 67.41298799879462 109.77579902720709 30.048807960764975 C 0.0 **** -0.24
9357 H 67.41179864617226 109.11471880347753 29.181858010080305 H 0.0 **** 0.06
9358 H 67.6160002001784 109.19334461118959 30.949081609970932 H 0.0 **** 0.06
9359 H 66.44043310014615 110.25852425073606 30.139499683685102 H 0.0 **** 0.06
9360 H 68.18615140908423 110.53502169997495 29.9255481360193 H 0.0 **** 0.06
9361 C 169.29245871436268 57.9764144863546 187.0272083655019 C 0.0 **** -0.24
9362 H 168.425996310326 57.392687464974244 186.71655204887094 H 0.0 **** 0.06
9363 H 169.15466700129116 59.01632646535671 186.73044042565184 H 0.0 **** 0.06
9364 H 170.18918793650158 57.57780974514225 186.55090312396413 H 0.0 **** 0.06
9365 H 169.4003021105541 57.91836454795987 188.11011449249568 H 0.0 **** 0.06
9366 C 4.253351760479212 16.72363728224377 112.16462645849703 C 0.0 **** -0.24
9367 H 4.325140073035847 16.830488603717754 111.08270968985585 H 0.0 **** 0.06
9368 H 3.8396738270586397 15.743868105217643 112.40712727910284 H 0.0 **** 0.06
9369 H 3.602200516052882 17.50195986859171 112.5637138065631 H 0.0 **** 0.06
9370 H 5.245889580609337 16.81805252834056 112.60626447836864 H 0.0 **** 0.06
9371 C 33.615522113542056 90.6840323975598 172.03352291995094 C 0.0 **** -0.24
9372 H 34.508370490600385 90.9306729519163 172.60769439764456 H 0.0 **** 0.06
9373 H 33.88087729962251 90.56222284419181 170.9830469543615 H 0.0 **** 0.06
9374 H 32.8861619396809 91.48867976177317 172.13322279785118 H 0.0 **** 0.06
9375 H 33.18677492637016 89.7554886572371 172.41046993775458 H 0.0 **** 0.06
9376 C 198.2672578360434 99.4855160925616 30.372334402615536 C 0.0 **** -0.24
9377 H 199.06835004134695 99.05169013033455 30.97072306704277 H 0.0 **** 0.06
9378 H 197.303949616765 99.21279474466226 30.803504933322074 H 0.0 **** 0.06
9379 H 198.32973635863377 99.10704370545494 29.352990629508497 H 0.0 **** 0.06
9380 H 198.36735104812425 100.57044551709728 30.364324750683295 H 0.0 **** 0.06
9381 C 164.46381724809908 9.808001151064147 182.43860018874258 C 0.0 **** -0.24
9382 H 163.95011195215423 9.347523171557569 181.59462768667453 H 0.0 **** 0.06
9383 H 163.95350675895935 9.540898197709232 183.3644073587972 H 0.0 **** 0.06
9384 H 164.4589395930792 10.891409843442815 182.31987996483062 H 0.0 **** 0.06
9385 H 165.49283290329186 9.451248960006524 182.47584700830558 H 0.0 **** 0.06
9386 C 152.76604350363235 42.981997267145175 195.8450361073406 C 0.0 **** -0.24
9387 H 152.871293322997 43.57709037472614 196.7528865241743 H 0.0 **** 0.06
9388 H 152.16506184785234 42.09686372601993 196.05863243888626 H 0.0 **** 0.06
9389 H 153.75214750170062 42.67685136719581 195.49427610862017 H 0.0 **** 0.06
9390 H 152.27498441620932 43.57770777053037 195.07546892105415 H 0.0 **** 0.06
9391 C 96.35194822327801 152.85959640897246 129.55000170686628 C 0.0 **** -0.24
9392 H 95.4707271233435 152.787889397271 130.18809744904794 H 0.0 **** 0.06
9393 H 96.3730646660309 152.0126695961391 128.8634481596719 H 0.0 **** 0.06
9394 H 97.25031400813867 152.84895504854285 130.1679219118889 H 0.0 **** 0.06
9395 H 96.3129885455011 153.78829088467506 128.9809574290048 H 0.0 **** 0.06
9396 C 80.70434759711395 2.620958203112508 61.66999895762203 C 0.0 **** -0.24
9397 H 79.74105880032113 2.7453895070061662 62.164722343123344 H 0.0 **** 0.06
9398 H 81.45494197153644 2.330878138212057 62.40578720236579 H 0.0 **** 0.06
9399 H 80.99772685001679 3.5620749665876303 61.20383744600298 H 0.0 **** 0.06
9400 H 80.623424975646 1.8469469072965126 60.9069984862341 H 0.0 **** 0.06
9401 C 40.21876925998288 19.851818456245667 133.42533071933065 C 0.0 **** -0.24
9402 H 40.177488289943994 18.77211344691011 133.281926900906 H 0.0 **** 0.06
9403 H 40.449943231495126 20.335686559615965 132.47637869984612 H 0.0 **** 0.06
9404 H 40.99411635741754 20.090780765628125 134.15341902544844 H 0.0 **** 0.06
9405 H 39.25516922609009 20.207650757437705 133.7907045581086 H 0.0 **** 0.06
9406 C 165.17470780652047 54.154609391937186 171.85972941379882 C 0.0 **** -0.24
9407 H 164.08924020986404 54.10336512640583 171.78075611079802 H 0.0 **** 0.06
9408 H 165.4627224979008 55.11397764899232 172.29197449712544 H 0.0 **** 0.06
9409 H 165.6160062225239 54.056199973961185 170.86758829918142 H 0.0 **** 0.06
9410 H 165.53137966263844 53.346050248426764 172.4979683861233 H 0.0 **** 0.06
9411 C 139.40388833282879 178.89886968878062 169.81897892203997 C 0.0 **** -0.24
9412 H 138.8733815950667 178.2583195119608 169.11569752988538 H 0.0 **** 0.06
9413 H 140.32240009488385 178.4054326119039 170.13777461053206 H 0.0 **** 0.06
9414 H 138.77214748157803 179.0858693640538 170.68766201329922 H 0.0 **** 0.06
9415 H 139.64855740140837 179.84512450376099 169.33639156682767 H 0.0 **** 0.06
9416 C 166.04900610550152 113.88359484339742 83.2277585942839 C 0.0 **** -0.24
9417 H 165.80893863775296 113.36017000446441 84.15392313636997 H 0.0 **** 0.06
9418 H 167.10258921558102 114.16494105817489 83.23355895871191 H 0.0 **** 0.06
9419 H 165.43445421829313 114.77930092406928 83.14800748855771 H 0.0 **** 0.06
9420 H 165.85110316328678 113.2292316211946 82.37905671995654 H 0.0 **** 0.06
9421 C 65.4462509998551 184.84566629387905 143.59996747727885 C 0.0 **** -0.24
9422 H 64.89809302152536 185.0257368475016 144.52458042471474 H 0.0 **** 0.06
9423 H 66.4965229989866 184.66190864166467 143.8310098568959 H 0.0 **** 0.06
9424 H 65.36367646530422 185.71830643471304 142.95262498879836 H 0.0 **** 0.06
9425 H 65.02791933017356 183.97555645378432 143.09313892504912 H 0.0 **** 0.06
9426 C 34.95695011157197 127.48327239972164 24.42018327443816 C 0.0 **** -0.24
9427 H 33.94633258794565 127.07658103522613 24.4646697979598 H 0.0 **** 0.06
9428 H 35.1745540974665 127.80207471843343 23.40084119839196 H 0.0 **** 0.06
9429 H 35.669759978751415 126.7151885622614 24.72078101372699 H 0.0 **** 0.06
9430 H 35.03488025748065 128.33615135132223 25.09293807730603 H 0.0 **** 0.06
9431 C 188.54085203607116 162.71172052844872 61.654546843131754 C 0.0 **** -0.24
9432 H 188.03943936182407 162.52160244432173 60.706152883360005 H 0.0 **** 0.06
9433 H 187.9028083929909 163.32938556290156 62.28678880805279 H 0.0 **** 0.06
9434 H 189.48206345356246 163.23082062869156 61.470405971258515 H 0.0 **** 0.06
9435 H 188.74124005028102 161.76433015831634 62.15576419160641 H 0.0 **** 0.06
9436 C 80.38500279193977 182.51472109026838 105.62719530278639 C 0.0 **** -0.24
9437 H 80.1663852260449 181.6004806399227 105.07431062467322 H 0.0 **** 0.06
9438 H 79.74036148106256 182.57061775926377 106.50490359471303 H 0.0 **** 0.06
9439 H 80.20230205802147 183.3774685131459 104.98652377227927 H 0.0 **** 0.06
9440 H 81.42850643982729 182.50821649062334 105.94115787486078 H 0.0 **** 0.06
9441 C 99.85303918604939 12.216621380435946 87.7557498598606 C 0.0 **** -0.24
9442 H 99.03065950143292 12.899192201618916 87.53949207461159 H 0.0 **** 0.06
9443 H 100.62506944554355 12.326404211456321 86.99306792959507 H 0.0 **** 0.06
9444 H 99.48409083563331 11.192084784612376 87.75503495897627 H 0.0 **** 0.06
9445 H 100.27248745078339 12.451388745182221 88.73358834393682 H 0.0 **** 0.06
9446 C 39.91169741224482 119.50093074356414 149.21195725856566 C 0.0 **** -0.24
9447 H 40.66807357340602 119.60625490050518 148.4345007664951 H 0.0 **** 0.06
9448 H 40.25459124972562 119.9986284291632 150.12015578067775 H 0.0 **** 0.06
9449 H 39.74661062037822 118.44336461321325 149.41669099516707 H 0.0 **** 0.06
9450 H 38.98034523386275 119.95754624526836 148.87731553764223 H 0.0 **** 0.06
9451 C 102.24075879778377 46.76389377582605 133.22801964429362 C 0.0 **** -0.24
9452 H 101.49637473168863 47.295758934508086 132.63639943360897 H 0.0 **** 0.06
9453 H 103.2333254130094 47.146134459151 132.99003802105494 H 0.0 **** 0.06
9454 H 102.19497520814062 45.69921553012132 132.99738834971714 H 0.0 **** 0.06
9455 H 102.03723314986058 46.91530728855072 134.2884049306299 H 0.0 **** 0.06
9456 C 117.384421861091 191.2328957631779 163.91084613071644 C 0.0 **** -0.24
9457 H 116.56036295223188 190.76101200158703 163.37569819488317 H 0.0 **** 0.06
9458 H 118.08028984382975 191.66978927859367 163.1937404787614 H 0.0 **** 0.06
9459 H 117.90225002503047 190.48565147158587 164.51185581088845 H 0.0 **** 0.06
9460 H 116.99353251427527 192.01556672073457 164.56159830256888 H 0.0 **** 0.06
9461 C 196.53222317818813 96.2893506807406 32.638279197488885 C 0.0 **** -0.24
9462 H 195.58908556189695 96.5896580282872 32.18130914923917 H 0.0 **** 0.06
9463 H 197.34985376286025 96.84890836618928 32.18377385306907 H 0.0 **** 0.06
9464 H 196.6883955591205 95.22197576414226 32.47878725689269 H 0.0 **** 0.06
9465 H 196.4994746428478 96.4960559544713 33.70824001764986 H 0.0 **** 0.06
9466 C 41.61250947572677 93.26977027520499 52.267537279625074 C 0.0 **** -0.24
9467 H 41.76602923151222 94.03890899619878 51.51077510500308 H 0.0 **** 0.06
9468 H 41.21690697490064 93.7268775728993 53.17410566923829 H 0.0 **** 0.06
9469 H 42.56285510132528 92.78462529314277 52.48965935281751 H 0.0 **** 0.06
9470 H 40.90500255644821 92.52914793506946 51.893559728086316 H 0.0 **** 0.06
9471 C 37.10063786684036 63.24306206520116 146.21167743549952 C 0.0 **** -0.24
9472 H 37.81349787916642 64.00737763654374 146.52375759828507 H 0.0 **** 0.06
9473 H 36.891956520654574 62.57731165868641 147.04885792044914 H 0.0 **** 0.06
9474 H 37.52361889942827 62.668628094278674 145.38724832903708 H 0.0 **** 0.06
9475 H 36.176833922860325 63.720370782392564 145.88602988642143 H 0.0 **** 0.06
9476 C 92.30604737110966 51.060829568216434 13.047345186130286 C 0.0 **** -0.24
9477 H 91.22401654969133 51.185051179454035 13.020346107542906 H 0.0 **** 0.06
9478 H 92.56401072162518 50.056048051638285 12.713691650119529 H 0.0 **** 0.06
9479 H 92.66354081337613 51.20885948700739 14.06582996311164 H 0.0 **** 0.06
9480 H 92.77282109618363 51.79401730212331 12.388277089695322 H 0.0 **** 0.06
9481 C 141.0079196657171 2.5872698577158246 99.10781960457157 C 0.0 **** -0.24
9482 H 141.15438504507685 3.4139177462106716 98.41262478060665 H 0.0 **** 0.06
9483 H 141.39557628233237 1.6685777294053992 98.66526582583771 H 0.0 **** 0.06
9484 H 139.94443708494896 2.471055378548499 99.3146302900198 H 0.0 **** 0.06
9485 H 141.53919103045664 2.795296808924718 100.0364563485895 H 0.0 **** 0.06
9486 C 90.32496432469105 172.51812361916868 77.86345503363435 C 0.0 **** -0.24
9487 H 89.28058093057416 172.35523329657036 78.13302652865896 H 0.0 **** 0.06
9488 H 90.72060010147521 171.6200169559298 77.38726969760911 H 0.0 **** 0.06
9489 H 90.90078732045936 172.73636114372528 78.76268300053292 H 0.0 **** 0.06
9490 H 90.39543107528084 173.3577944280003 77.17337459514609 H 0.0 **** 0.06
9491 C 96.8619259125181 188.62523572010934 104.78039184832699 C 0.0 **** -0.24
9492 H 97.24997397198229 187.86636251131455 104.10034048485687 H 0.0 **** 0.06
9493 H 97.64418161923376 189.35474894078513 104.99247478945034 H 0.0 **** 0.06
9494 H 96.54336918473786 188.15228434506716 105.70880461695651 H 0.0 **** 0.06
9495 H 96.01217482590516 189.12694323761778 104.31700610307269 H 0.0 **** 0.06
9496 C 177.63437691203595 189.2677410704198 175.3935345850028 C 0.0 **** -0.24
9497 H 178.5831373500307 189.78511993731996 175.25580153335602 H 0.0 **** 0.06
9498 H 177.75825929955738 188.4708370263162 176.1267206309112 H 0.0 **** 0.06
9499 H 177.3118909644119 188.84108662939155 174.4436148568958 H 0.0 **** 0.06
9500 H 176.88389229044316 189.97432535118918 175.74714758943313 H 0.0 **** 0.06
9501 C 142.13082857542565 23.105425073400852 1.6658048033698094 C 0.0 **** -0.24
9502 H 141.2017284591593 22.85886615695864 1.1512755318972552 H 0.0 **** 0.06
9503 H 142.0041459141394 24.03751056582101 2.2172572840191833 H 0.0 **** 0.06
9504 H 142.93138656297955 23.22091824937712 0.9355473800255538 H 0.0 **** 0.06
9505 H 142.38412792850716 22.304578490262088 2.360262767208326 H 0.0 **** 0.06
9506 C 94.81248905643173 64.15557449608912 161.6135134354961 C 0.0 **** -0.24
9507 H 95.15645065229964 64.12537795107065 160.5793808117727 H 0.0 **** 0.06
9508 H 95.14619063888779 65.08313993107524 162.07998243394138 H 0.0 **** 0.06
9509 H 95.22322226025483 63.306061456245175 162.15805130072258 H 0.0 **** 0.06
9510 H 93.7235298975491 64.10948309399387 161.63503603142595 H 0.0 **** 0.06
9511 C 49.71170484910118 120.13466935048268 140.69742539954643 C 0.0 **** -0.24
9512 H 49.31444773846357 119.22095759930025 141.13935107599673 H 0.0 **** 0.06
9513 H 49.67647245131343 120.93872333272896 141.43273387973804 H 0.0 **** 0.06
9514 H 49.11279759835685 120.40851991689507 139.82953910004707 H 0.0 **** 0.06
9515 H 50.74413442035541 119.9692600637569 140.38928317069255 H 0.0 **** 0.06
9516 C 163.21745849625012 32.47006245893681 17.071279566303417 C 0.0 **** -0.24
9517 H 163.47900802857282 33.4974072380341 17.328511505723043 H 0.0 **** 0.06
9518 H 162.2283073592343 32.452084687817205 16.61270838285327 H 0.0 **** 0.06
9519 H 163.21209244232745 31.85951027755246 17.973494559163726 H 0.0 **** 0.06
9520 H 163.95150611954057 32.074161599506226 16.36831988505827 H 0.0 **** 0.06
9521 C 170.7867652149796 32.73711593086023 6.519206733940962 C 0.0 **** -0.24
9522 H 169.84675276912182 32.77798647751317 7.070261087712851 H 0.0 **** 0.06
9523 H 171.21105333572407 33.73914140374666 6.452504157163517 H 0.0 **** 0.06
9524 H 170.60226201217802 32.35221827710586 5.516933808461076 H 0.0 **** 0.06
9525 H 171.4838695893264 32.08084017609394 7.039196430359844 H 0.0 **** 0.06
9526 C 76.24902631368046 56.62050745103046 113.65509667246747 C 0.0 **** -0.24
9527 H 76.85221623387866 57.3671901007135 113.13734803459846 H 0.0 **** 0.06
9528 H 76.47520921045509 55.63155623973702 113.25549750122039 H 0.0 **** 0.06
9529 H 75.19196545060612 56.84118484131844 113.50591051865678 H 0.0 **** 0.06
9530 H 76.47963963762417 56.644112326949255 114.72045248176298 H 0.0 **** 0.06
9531 C 140.2092856281767 69.52867247465628 104.16599003094859 C 0.0 **** -0.24
9532 H 139.67156154519492 69.65423821277837 105.10586062947158 H 0.0 **** 0.06
9533 H 139.49409652320372 69.41613886038266 103.3510793517504 H 0.0 **** 0.06
9534 H 140.83958861665792 68.64097793265336 104.22392306783604 H 0.0 **** 0.06
9535 H 140.8325209764792 70.40510069871553 103.9846754435618 H 0.0 **** 0.06
9536 C 37.837877053405634 140.7958679868233 186.48106383016085 C 0.0 **** -0.24
9537 H 36.85412883822477 141.26181574273645 186.43893558937327 H 0.0 **** 0.06
9538 H 38.585856968890425 141.4905045217453 186.0966657962693 H 0.0 **** 0.06
9539 H 37.83790665317639 139.8896831467319 185.87533392619414 H 0.0 **** 0.06
9540 H 38.07560592171225 140.5429690025518 187.51498974672947 H 0.0 **** 0.06
9541 C 67.58949395984502 83.8032027124842 87.29023466776076 C 0.0 **** -0.24
9542 H 68.2164206211915 82.92182816806408 87.43210995388051 H 0.0 **** 0.06
9543 H 66.61681197876192 83.49891828110302 86.9052003758629 H 0.0 **** 0.06
9544 H 68.06741344296705 84.47718637545361 86.57946982160203 H 0.0 **** 0.06
9545 H 67.459933086246 84.31373116645923 88.24511130068058 H 0.0 **** 0.06
9546 C 126.32541273991185 100.63403506209602 66.2096025929331 C 0.0 **** -0.24
9547 H 126.41762517616584 100.88594982769524 65.15339073548176 H 0.0 **** 0.06
9548 H 126.9370149942493 101.31564867983747 66.80015591475933 H 0.0 **** 0.06
9549 H 126.6626345028819 99.60999800190382 66.36971587221308 H 0.0 **** 0.06
9550 H 125.28219744185978 100.72386395747924 66.51425865664322 H 0.0 **** 0.06
9551 C 125.43356162526644 147.57770954022737 87.31930982840976 C 0.0 **** -0.24
9552 H 124.88782392892875 147.54785405021596 86.37574280953291 H 0.0 **** 0.06
9553 H 124.99635143036744 148.3371431303363 87.96767435059175 H 0.0 **** 0.06
9554 H 126.47820591846656 147.82054997889188 87.12808619847698 H 0.0 **** 0.06
9555 H 125.3698664420898 146.60430374527914 87.80591004400333 H 0.0 **** 0.06
9556 C 26.857118190929057 198.4842822792372 106.32347165368506 C 0.0 **** -0.24
9557 H 27.501054949675506 197.95088319394182 107.02244700443276 H 0.0 **** 0.06
9558 H 27.361608176878818 199.39013501254783 105.98397730874649 H 0.0 **** 0.06
9559 H 25.92515197100647 198.75158114855606 106.82110399979376 H 0.0 **** 0.06
9560 H 26.64271527859036 197.84565139703204 105.46707125015624 H 0.0 **** 0.06
9561 C 153.53209052540114 56.81067061210774 12.515852764164528 C 0.0 **** -0.24
9562 H 154.24930024511406 56.74149535668511 13.334471546300605 H 0.0 **** 0.06
9563 H 152.71797887469944 56.10575488503372 12.685592944309086 H 0.0 **** 0.06
9564 H 154.03062455102588 56.57204058848788 11.57565531222832 H 0.0 **** 0.06
9565 H 153.13264527103993 57.8242139083045 12.468427255408152 H 0.0 **** 0.06
9566 C 79.0375772646386 169.46992963659943 103.62105162688917 C 0.0 **** -0.24
9567 H 79.05083864276617 169.56865969734204 104.7071161841944 H 0.0 **** 0.06
9568 H 78.7853372128944 168.44342251412627 103.35354876077113 H 0.0 **** 0.06
9569 H 80.02094416397321 169.7181658479607 103.22212807550136 H 0.0 **** 0.06
9570 H 78.29312320602723 170.14855798544656 103.20427061878993 H 0.0 **** 0.06
9571 C 138.81552031584454 135.92317797426475 73.21058617112445 C 0.0 **** -0.24
9572 H 137.79141088165716 136.28416759707721 73.11997146725597 H 0.0 **** 0.06
9573 H 138.81756004052585 134.83313797028183 73.2154146290718 H 0.0 **** 0.06
9574 H 139.24925323480738 136.29180261531127 74.13973163575326 H 0.0 **** 0.06
9575 H 139.40414038670485 136.2843465000697 72.36662028668434 H 0.0 **** 0.06
9576 C 60.224340386569054 25.17256875000804 63.64657505671826 C 0.0 **** -0.24
9577 H 59.449291791292296 24.40532480740849 63.63534474812336 H 0.0 **** 0.06
9578 H 59.796940703854204 26.114336259804745 63.9903455382337 H 0.0 **** 0.06
9579 H 60.62451471906621 25.299857315169604 62.641138440820924 H 0.0 **** 0.06
9580 H 61.025107716040566 24.868934781316327 64.32102430150795 H 0.0 **** 0.06
9581 C 115.15544499314657 145.82593357884488 67.5011573971958 C 0.0 **** -0.24
9582 H 115.50820193994699 146.63537783166487 68.14031795740271 H 0.0 **** 0.06
9583 H 114.14611945826252 145.5414237661102 67.8005014118578 H 0.0 **** 0.06
9584 H 115.82016590207127 144.96832559552794 67.60181190033377 H 0.0 **** 0.06
9585 H 115.14711207689754 146.15909782755128 66.46439137646709 H 0.0 **** 0.06
9586 C 58.332801606668 133.03660730520946 174.56972893870318 C 0.0 **** -0.24
9587 H 58.21355150486261 131.95284101929008 174.58485350273838 H 0.0 **** 0.06
9588 H 58.002173022308 133.4239808975663 173.60543067251183 H 0.0 **** 0.06
9589 H 59.38142360489968 133.28893200276704 174.7229046700926 H 0.0 **** 0.06
9590 H 57.73197360224606 133.47875215901084 175.36474927129666 H 0.0 **** 0.06
9591 C 196.8910294205139 189.67928474969813 69.97778132974645 C 0.0 **** -0.24
9592 H 197.2605814305976 188.69267264675554 69.69935442847748 H 0.0 **** 0.06
9593 H 197.36419595007385 189.99338941493778 70.90867090352072 H 0.0 **** 0.06
9594 H 195.81115077724672 189.63772228585654 70.11466203442353 H 0.0 **** 0.06
9595 H 197.13108110871417 190.3928816573151 69.18962758761131 H 0.0 **** 0.06
9596 C 134.07262915995219 114.02128952261052 126.80437890302167 C 0.0 **** -0.24
9597 H 133.81068781362941 114.85067346058588 127.46127211704746 H 0.0 **** 0.06
9598 H 135.15671208186905 113.91705252985753 126.76449731315947 H 0.0 **** 0.06
9599 H 133.68789998058114 114.21722133115156 125.80253614572518 H 0.0 **** 0.06
9600 H 133.63246099535291 113.10094633644388 127.18828004931663 H 0.0 **** 0.06
9601 C 57.21982730095607 16.30110299414298 11.605742048799641 C 0.0 **** -0.24
9602 H 56.54538434963996 15.482760843945172 11.352186277659712 H 0.0 **** 0.06
9603 H 57.878195998715285 16.50380931221045 10.761175602087235 H 0.0 **** 0.06
9604 H 57.816824159151 16.02373349108825 12.474617526838642 H 0.0 **** 0.06
9605 H 56.63682007244245 17.19338416114165 11.836051828327783 H 0.0 **** 0.06
9606 C 195.14922338616344 197.52254902539505 50.68061493017305 C 0.0 **** -0.24
9607 H 194.62396303003177 198.04740302533287 49.88255946666854 H 0.0 **** 0.06
9608 H 194.49686650614154 197.4358805174885 51.5496729019783 H 0.0 **** 0.06
9609 H 196.04648798071383 198.0790584158654 50.952925866645856 H 0.0 **** 0.06
9610 H 195.4304940903039 196.52740822623517 50.336322525367194 H 0.0 **** 0.06
9611 C 23.449618710532718 132.35266071497438 22.50468586206759 C 0.0 **** -0.24
9612 H 22.8901681311944 131.97613993052312 23.360585279936217 H 0.0 **** 0.06
9613 H 24.43618768441064 131.88958817292644 22.48196656281165 H 0.0 **** 0.06
9614 H 23.557512541103733 133.43444148637354 22.58793237443392 H 0.0 **** 0.06
9615 H 22.913397512759275 132.1115824362106 21.586440367354015 H 0.0 **** 0.06
9616 C 79.20918340562326 77.71110857836476 31.169524243135427 C 0.0 **** -0.24
9617 H 79.31909086623085 77.0389647674831 30.319217414113254 H 0.0 **** 0.06
9618 H 78.90619226208125 78.69670788399765 30.816665844178175 H 0.0 **** 0.06
9619 H 80.1597395583857 77.78987472399453 31.695659723948324 H 0.0 **** 0.06
9620 H 78.45060910544302 77.3180041154988 31.846635461577463 H 0.0 **** 0.06
9621 C 1.5195799301761497 77.71225150369962 23.138548787516413 C 0.0 **** -0.24
9622 H 0.7267606485789315 76.99572111995431 23.353605712408523 H 0.0 **** 0.06
9623 H 1.1883456203649985 78.71376495219076 23.414844549459332 H 0.0 **** 0.06
9624 H 1.7523693006851886 77.68833101171394 22.073577605184198 H 0.0 **** 0.06
9625 H 2.4093366170554873 77.45274731749706 23.711620583279256 H 0.0 **** 0.06
9626 C 0.18098664914407436 71.14341992401086 121.14697367254433 C 0.0 **** -0.24
9627 H -0.6229237599090993 70.65478124680362 121.69800361006273 H 0.0 **** 0.06
9628 H 0.5393770889344296 72.00266237804881 121.7145768770313 H 0.0 **** 0.06
9629 H -0.19345562854397258 71.47758635797894 120.17896464623905 H 0.0 **** 0.06
9630 H 0.9985769476956534 70.43886067484249 120.99692356527828 H 0.0 **** 0.06
9631 C 144.44954019202606 69.22671004623822 129.408755131696 C 0.0 **** -0.24
9632 H 145.07128647266512 68.53428639129038 128.84218236178873 H 0.0 **** 0.06
9633 H 144.1947353123311 68.78281984360399 130.3714781753075 H 0.0 **** 0.06
9634 H 143.53478374736937 69.4334074356164 128.85152218238812 H 0.0 **** 0.06
9635 H 144.9944838801557 70.15719283491762 129.56976709307727 H 0.0 **** 0.06
9636 C 16.933163137776546 170.14059690097275 56.19825167855811 C 0.0 **** -0.24
9637 H 16.32753404198536 170.3365499043864 55.313031640276904 H 0.0 **** 0.06
9638 H 16.293065803823595 170.12739899166908 57.080079829616295 H 0.0 **** 0.06
9639 H 17.684384860589205 170.92261113293003 56.30511761887084 H 0.0 **** 0.06
9640 H 17.42736076647057 169.17427674215512 56.09186200228953 H 0.0 **** 0.06
9641 C 60.07307389974795 12.02146731320596 156.18288563549217 C 0.0 **** -0.24
9642 H 59.92257754877136 12.404496791367706 155.1735314108941 H 0.0 **** 0.06
9643 H 59.1070827113997 11.784232318922477 156.62819480403277 H 0.0 **** 0.06
9644 H 60.577260899592716 12.776655385058149 156.78675743549402 H 0.0 **** 0.06
9645 H 60.686354364958675 11.121549164496486 156.1416779970103 H 0.0 **** 0.06
9646 C 48.20842970272071 68.85128157861612 35.71118057882342 C 0.0 **** -0.24
9647 H 48.75825677859862 69.4460611748795 36.440214246888075 H 0.0 **** 0.06
9648 H 48.64165507495113 68.99691171958213 34.72224211002731 H 0.0 **** 0.06
9649 H 47.163893158052645 69.16353289939298 35.70073002561577 H 0.0 **** 0.06
9650 H 48.26915756214379 67.79735417036443 35.982443967618224 H 0.0 **** 0.06
9651 C 121.93794095997816 115.15252189654385 128.05225039145535 C 0.0 **** -0.24
9652 H 122.08103927345383 115.94969031854163 128.78122573118492 H 0.0 **** 0.06
9653 H 121.35385933317121 114.34941230533173 128.5023152010906 H 0.0 **** 0.06
9654 H 122.90901572337543 114.76667911603599 127.74138250384112 H 0.0 **** 0.06
9655 H 121.40817868187031 115.54518882627664 127.18374344516775 H 0.0 **** 0.06
9656 C 125.48272082398671 13.586047290653369 191.36503202975894 C 0.0 **** -0.24
9657 H 124.74983571524422 14.278179544020531 191.78032957993847 H 0.0 **** 0.06
9658 H 126.45010052695147 14.082646654873997 191.29086154720582 H 0.0 **** 0.06
9659 H 125.15940245481761 13.268799841636337 190.3734524932352 H 0.0 **** 0.06
9660 H 125.56869764167516 12.715040932443117 192.01419347278713 H 0.0 **** 0.06
9661 C 170.79150428250855 53.23227324309579 135.05127110564626 C 0.0 **** -0.24
9662 H 171.59220909800823 52.49374272346962 135.10610890211353 H 0.0 **** 0.06
9663 H 171.2224195585221 54.2341673164662 135.05132358735165 H 0.0 **** 0.06
9664 H 170.1337453473981 53.11915606159357 135.9131164348122 H 0.0 **** 0.06
9665 H 170.221048554247 53.081573223186425 134.13601791714336 H 0.0 **** 0.06
9666 C 32.95973926137967 53.40493825231327 106.5938072638526 C 0.0 **** -0.24
9667 H 32.8363548138302 52.93681394229367 105.61697943837333 H 0.0 **** 0.06
9668 H 32.81178144937664 52.65865713165168 107.37448175490658 H 0.0 **** 0.06
9669 H 32.227325667948875 54.203598982301216 106.70943614986297 H 0.0 **** 0.06
9670 H 33.9644799376038 53.81910960989515 106.67308478696017 H 0.0 **** 0.06
9671 C 164.19117928859393 119.25121815221175 149.41988313854822 C 0.0 **** -0.24
9672 H 164.72332737114365 120.19805687231462 149.33714557322452 H 0.0 **** 0.06
9673 H 164.6157658963624 118.5336709686122 148.71716772487264 H 0.0 **** 0.06
9674 H 163.13683867083495 119.40575905896932 149.1919036679396 H 0.0 **** 0.06
9675 H 164.2909710227343 118.86666965327024 150.43626682789022 H 0.0 **** 0.06
9676 C 144.6953810480989 35.98015139233755 78.92858020646403 C 0.0 **** -0.24
9677 H 144.3489462359153 36.66474126606124 78.15481325655931 H 0.0 **** 0.06
9678 H 145.340784005842 35.22341990448962 78.48229311799207 H 0.0 **** 0.06
9679 H 143.83714062973212 35.4967497974379 79.39606601339034 H 0.0 **** 0.06
9680 H 145.25355052125076 36.536128827763264 79.68241150766798 H 0.0 **** 0.06
9681 C 73.50973609835482 176.835866651112 47.39956312229151 C 0.0 **** -0.24
9682 H 73.6871242871082 177.7529522842625 46.83693440361645 H 0.0 **** 0.06
9683 H 74.2102794516937 176.78090542964247 48.233389229462375 H 0.0 **** 0.06
9684 H 73.65445390188937 175.97525274837554 46.7466763443046 H 0.0 **** 0.06
9685 H 72.48898645932263 176.8355298577156 47.781135829518746 H 0.0 **** 0.06
9686 C 141.8469836614156 53.81696625983085 174.79586823958732 C 0.0 **** -0.24
9687 H 140.9935117183665 53.18499807416981 175.0403872080793 H 0.0 **** 0.06
9688 H 142.613295678412 53.21680482554075 174.30432083785604 H 0.0 **** 0.06
9689 H 142.25312782828087 54.24851342597702 175.71057509783685 H 0.0 **** 0.06
9690 H 141.52760239522587 54.61663831954786 174.12718303918615 H 0.0 **** 0.06
9691 C 133.22545678681172 162.7610484023179 183.74210023787816 C 0.0 **** -0.24
9692 H 133.539325339245 163.5264224484418 184.4527139227771 H 0.0 **** 0.06
9693 H 133.3185611958005 163.1472947990288 182.7267988121274 H 0.0 **** 0.06
9694 H 132.18640105977022 162.4918378306699 183.93469455337043 H 0.0 **** 0.06
9695 H 133.85639113816222 161.87957953249068 183.85553371830207 H 0.0 **** 0.06
9696 C 9.895181112583344 181.7219075483691 22.031673855663428 C 0.0 **** -0.24
9697 H 10.019781674472881 182.75333355502323 22.360650699911332 H 0.0 **** 0.06
9698 H 8.990647092860485 181.63970936699 21.428714191136123 H 0.0 **** 0.06
9699 H 9.812362989497018 181.07119109442493 22.90289481709749 H 0.0 **** 0.06
9700 H 10.758058518566997 181.4244228033831 21.436656150524982 H 0.0 **** 0.06
9701 C 144.04529449887463 60.39203004458591 151.7889847174288 C 0.0 **** -0.24
9702 H 143.59468730938494 61.37447299956341 151.92625693360526 H 0.0 **** 0.06
9703 H 144.606434525413 60.3766940538726 150.8549566944066 H 0.0 **** 0.06
9704 H 143.26188954794185 59.63428897159531 151.7556853033411 H 0.0 **** 0.06
9705 H 144.71779002533307 60.18192563476015 152.6208600643816 H 0.0 **** 0.06
9706 C 49.62400267045618 120.67279423156694 128.09028418756856 C 0.0 **** -0.24
9707 H 49.594398358860275 119.9886366191935 127.2413874563288 H 0.0 **** 0.06
9708 H 48.96170752936389 120.30494643311269 128.87452703557364 H 0.0 **** 0.06
9709 H 49.29546840953242 121.66189955577326 127.770514601272 H 0.0 **** 0.06
9710 H 50.64240997012034 120.73400613179186 128.47269670931638 H 0.0 **** 0.06
9711 C 1.3341769006707977 170.84748642835024 160.97628919980602 C 0.0 **** -0.24
9712 H 1.1948639493271571 171.91050163232583 160.7767640530301 H 0.0 **** 0.06
9713 H 2.371607622779095 170.6625804711053 161.25604441315767 H 0.0 **** 0.06
9714 H 1.0925517538315717 170.275950518514 160.08020010124454 H 0.0 **** 0.06
9715 H 0.6769842992796953 170.54128278486726 161.7898301532707 H 0.0 **** 0.06
9716 C 40.61722708377101 77.52792848520319 146.52136429635092 C 0.0 **** -0.24
9717 H 39.88490891396083 78.31124088673268 146.32284354795854 H 0.0 **** 0.06
9718 H 41.61661602220329 77.96230268197831 146.54355632185508 H 0.0 **** 0.06
9719 H 40.5646607223662 76.77441396305312 145.73598839341906 H 0.0 **** 0.06
9720 H 40.399596138926995 77.0648474388033 147.4844953504242 H 0.0 **** 0.06
9721 C 4.857579108415933 145.19060349949422 172.7483320411661 C 0.0 **** -0.24
9722 H 5.808658691323615 145.69415635012174 172.57482458155658 H 0.0 **** 0.06
9723 H 4.440486702777321 145.52027151478273 173.7002378251915 H 0.0 **** 0.06
9724 H 5.016757795407187 144.1122643015128 172.77475964492638 H 0.0 **** 0.06
9725 H 4.165146091865779 145.43634348788606 171.9432295279897 H 0.0 **** 0.06
9726 C 164.23286928126691 112.73999509760597 136.2799545835191 C 0.0 **** -0.24
9727 H 164.1922068401493 113.73456719643852 136.72641133699244 H 0.0 **** 0.06
9728 H 163.287593888248 112.2256935084705 136.45313653360327 H 0.0 **** 0.06
9729 H 165.0445691560335 112.17197799034167 136.73304015276193 H 0.0 **** 0.06
9730 H 164.40630881315843 112.83120742518372 135.2078231935681 H 0.0 **** 0.06
9731 C 115.46944279863928 132.44276284936993 84.49606580968918 C 0.0 **** -0.24
9732 H 116.2305921142696 131.85468275988538 83.98450722697021 H 0.0 **** 0.06
9733 H 114.6256536003275 132.60797087228764 83.82582869587793 H 0.0 **** 0.06
9734 H 115.89106149822956 133.40364901431008 84.79348498059659 H 0.0 **** 0.06
9735 H 115.13075520053778 131.9056995083163 85.38244517335067 H 0.0 **** 0.06
9736 C 55.74615032252093 169.10297232013164 89.56068565623056 C 0.0 **** -0.24
9737 H 55.617963645078135 169.2531703057841 90.63234950705768 H 0.0 **** 0.06
9738 H 56.80058612535076 168.9359486526108 89.34022722582495 H 0.0 **** 0.06
9739 H 55.39825259091502 169.98679878012834 89.02521422208486 H 0.0 **** 0.06
9740 H 55.16681111050487 168.23532112912557 89.24417628523963 H 0.0 **** 0.06
9741 C 2.8943132157546074 30.735794615325517 163.21597639013416 C 0.0 **** -0.24
9742 H 2.114430858547962 31.24836026449759 163.77920160960542 H 0.0 **** 0.06
9743 H 2.4377104210519462 30.115047905384415 162.44478827958997 H 0.0 **** 0.06
9744 H 3.4765106394019654 30.108692145064936 163.89042973346713 H 0.0 **** 0.06
9745 H 3.5485400714088087 31.47240980433949 162.74995819286045 H 0.0 **** 0.06
9746 C 194.11135811983928 161.61900726890008 27.01337540152167 C 0.0 **** -0.24
9747 H 195.04674430300315 161.95326803236108 26.563996804060935 H 0.0 **** 0.06
9748 H 193.54937690319946 161.03211545349473 26.286583271743126 H 0.0 **** 0.06
9749 H 193.5227091657619 162.48639828611522 27.312482271362683 H 0.0 **** 0.06
9750 H 194.32750129399614 161.00590848547262 27.887903089662473 H 0.0 **** 0.06
9751 C 122.94859305597038 113.2765826911598 72.48076182720138 C 0.0 **** -0.24
9752 H 122.70899785363909 112.96477216615654 73.49765318362392 H 0.0 **** 0.06
9753 H 122.30591952760398 114.1097563899435 72.19526748546004 H 0.0 **** 0.06
9754 H 122.78813525527016 112.44256005205318 71.79847802484767 H 0.0 **** 0.06
9755 H 123.99156289629724 113.5896178977381 72.43332184053912 H 0.0 **** 0.06
9756 C 78.6272727079444 68.01767309409101 21.587169531874395 C 0.0 **** -0.24
9757 H 78.9488191526151 67.30873849338437 22.350361713133367 H 0.0 **** 0.06
9758 H 79.47641234114849 68.28465243437094 20.958256507666718 H 0.0 **** 0.06
9759 H 78.23373046563772 68.91355792999317 22.06728362699208 H 0.0 **** 0.06
9760 H 77.84854428769194 67.56355546707317 20.973982021992185 H 0.0 **** 0.06
9761 C 145.04467509285445 160.7942502011449 146.41101714699744 C 0.0 **** -0.24
9762 H 145.93436150465075 160.74621602207577 145.78430712116 H 0.0 **** 0.06
9763 H 145.32378931261468 160.63092468842765 147.4519002863222 H 0.0 **** 0.06
9764 H 144.33823753355594 160.0252702817292 146.09859989678833 H 0.0 **** 0.06
9765 H 144.5813956226115 161.7768433156769 146.30897481002768 H 0.0 **** 0.06
9766 C 17.58603372429762 126.3078949334986 31.085397561077457 C 0.0 **** -0.24
9767 H 17.566402889505625 126.75357008370963 30.091064636620445 H 0.0 **** 0.06
9768 H 16.849106206561444 125.50604941834214 31.138720184592046 H 0.0 **** 0.06
9769 H 17.350650057257866 127.06860573153014 31.830133290506552 H 0.0 **** 0.06
9770 H 18.57903252058624 125.90265714950431 31.282302186482468 H 0.0 **** 0.06
9771 C 65.46067123096879 35.85204302704835 132.02836170906122 C 0.0 **** -0.24
9772 H 65.80973788216372 36.06217615019972 133.03954875138794 H 0.0 **** 0.06
9773 H 64.70217353422032 35.068883185093114 132.06105151521268 H 0.0 **** 0.06
9774 H 66.29960425803665 35.51987819914743 131.416980010116 H 0.0 **** 0.06
9775 H 65.03147912571649 36.75561000225355 131.59699120641127 H 0.0 **** 0.06
9776 C 14.248418130548515 131.55243604068102 171.571052141561 C 0.0 **** -0.24
9777 H 13.655698459878806 131.94940677356016 170.74673829482728 H 0.0 **** 0.06
9778 H 14.23753527089334 132.26029675937323 172.39980569166244 H 0.0 **** 0.06
9779 H 15.274722861690236 131.39679412146663 171.23839033725397 H 0.0 **** 0.06
9780 H 13.82446480699278 130.60298811813334 171.89866763749308 H 0.0 **** 0.06
9781 C 43.72892240243942 186.21992276619116 67.40392842905771 C 0.0 **** -0.24
9782 H 43.444843576302674 185.94222289082515 66.38861926708503 H 0.0 **** 0.06
9783 H 43.394952324800684 185.44857871010325 68.09821009096673 H 0.0 **** 0.06
9784 H 43.262317393583174 187.17010011961665 67.66356363886985 H 0.0 **** 0.06
9785 H 44.81308083359076 186.31911111919362 67.46316408604132 H 0.0 **** 0.06
9786 C 127.99206452232559 55.30582626306034 16.629381283533817 C 0.0 **** -0.24
9787 H 127.02051312169013 55.41579997344337 17.111340146256353 H 0.0 **** 0.06
9788 H 128.3005891040604 56.264900377856065 16.212847832345574 H 0.0 **** 0.06
9789 H 127.920722505389 54.567856073199096 15.831046156770526 H 0.0 **** 0.06
9790 H 128.7257576861566 54.97555709579859 17.365435849240598 H 0.0 **** 0.06
9791 C 192.1434732858538 171.5516219513678 99.8461031756913 C 0.0 **** -0.24
9792 H 191.4384242351665 170.7637690763632 100.11464815359841 H 0.0 **** 0.06
9793 H 192.65615520788415 171.28014908553257 98.92394733932866 H 0.0 **** 0.06
9794 H 192.87297164474296 171.67256263750585 100.64640509329826 H 0.0 **** 0.06
9795 H 191.60437745442084 172.48742407689653 99.70098345355865 H 0.0 **** 0.06
9796 C 47.348701607666925 152.75317623502517 110.08633600348432 C 0.0 **** -0.24
9797 H 48.07395026511547 152.04940121019743 110.49533208119928 H 0.0 **** 0.06
9798 H 47.481885955016125 152.8258548242981 109.00594187099662 H 0.0 **** 0.06
9799 H 47.499898572417095 153.73451639948993 110.53685310422438 H 0.0 **** 0.06
9800 H 46.34010770720067 152.40403203981435 110.30528881950261 H 0.0 **** 0.06
9801 C 3.3955637298111654 152.45355197774995 29.115063958628667 C 0.0 **** -0.24
9802 H 2.6389989176192117 151.90628748394377 29.677421444405155 H 0.0 **** 0.06
9803 H 3.302426744232257 153.5194190845254 29.321922564306206 H 0.0 **** 0.06
9804 H 3.2550059514824454 152.27555344916243 28.048717520337917 H 0.0 **** 0.06
9805 H 4.387765142232617 152.10978989460511 29.412700880383525 H 0.0 **** 0.06
9806 C 52.46766820137913 164.5938899811003 190.61162614024107 C 0.0 **** -0.24
9807 H 51.630815653525815 164.0381443485338 190.1888693745123 H 0.0 **** 0.06
9808 H 52.54963619005309 164.3727872467083 191.67603326257415 H 0.0 **** 0.06
9809 H 52.30220826135094 165.66186720492954 190.47388611516507 H 0.0 **** 0.06
9810 H 53.389240968920674 164.30090423063592 190.10792416217492 H 0.0 **** 0.06
9811 C 71.7330066228055 58.352021512578744 83.98820386490968 C 0.0 **** -0.24
9812 H 72.2627474242409 57.613195085914725 83.38726637533637 H 0.0 **** 0.06
9813 H 71.39890250486809 57.89157706974515 84.91881230544413 H 0.0 **** 0.06
9814 H 70.86972612769513 58.71967701898106 83.43412635852275 H 0.0 **** 0.06
9815 H 72.40082951976318 59.183828791243954 84.21400007499997 H 0.0 **** 0.06
9816 C 106.25577251215688 54.781775788321795 195.7828547974247 C 0.0 **** -0.24
9817 H 106.14025393936672 53.72610160866401 195.53952961532065 H 0.0 **** 0.06
9818 H 106.77089863120716 55.28811292512381 194.9672872396223 H 0.0 **** 0.06
9819 H 106.83772453573636 54.88210391050666 196.69933818782624 H 0.0 **** 0.06
9820 H 105.27235098087061 55.230712071265486 195.92650024215874 H 0.0 **** 0.06
9821 C 133.02815695019075 81.14831197558851 171.38581757214305 C 0.0 **** -0.24
9822 H 132.91544457484946 80.0727877058921 171.52001941391683 H 0.0 **** 0.06
9823 H 134.07876322505095 81.41921259185489 171.48796933529928 H 0.0 **** 0.06
9824 H 132.44260522975407 81.67118744896402 172.14236308683104 H 0.0 **** 0.06
9825 H 132.67424829590925 81.42953728617448 170.39344078175057 H 0.0 **** 0.06
9826 C 54.52882605417143 119.40035721862483 122.63898849228079 C 0.0 **** -0.24
9827 H 53.600429348321285 119.54340878295429 122.08521009848653 H 0.0 **** 0.06
9828 H 55.031953615243054 120.36012422837081 122.75816749668255 H 0.0 **** 0.06
9829 H 55.17667891292183 118.71635027204246 122.0909566968696 H 0.0 **** 0.06
9830 H 54.306220804803075 118.98207225736289 123.61996976079644 H 0.0 **** 0.06
9831 C 26.139295851795907 41.90698507010143 113.43549430847969 C 0.0 **** -0.24
9832 H 25.337356002767933 41.90040701151294 112.69755130149557 H 0.0 **** 0.06
9833 H 26.06892063563663 41.01569168240343 114.05790179481798 H 0.0 **** 0.06
9834 H 26.049119026503888 42.7957049495042 114.06108988462657 H 0.0 **** 0.06
9835 H 27.1020790962107 41.919343035378375 112.92463778577115 H 0.0 **** 0.06
9836 C 169.66175542380537 86.80734860523029 95.43956311371943 C 0.0 **** -0.24
9837 H 170.3045170879654 87.5929378329262 95.04375550137974 H 0.0 **** 0.06
9838 H 169.8579146162696 86.68082014163065 96.5052923702541 H 0.0 **** 0.06
9839 H 169.86717968636543 85.8720731389381 94.91976282913106 H 0.0 **** 0.06
9840 H 168.61761661633508 87.08326463105556 95.29316580171411 H 0.0 **** 0.06
9841 C 13.905997816188659 119.71798964810455 78.0019640138809 C 0.0 **** -0.24
9842 H 14.375168763943634 119.44386373753204 77.05744653196159 H 0.0 **** 0.06
9843 H 12.890406520030751 119.32302428157897 78.03076269441739 H 0.0 **** 0.06
9844 H 13.877284847319231 120.80322211660794 78.09165629090546 H 0.0 **** 0.06
9845 H 14.482089242995244 119.3001480178676 78.82755393731463 H 0.0 **** 0.06
9846 C 186.41731153081204 73.87894978642407 99.4262201151785 C 0.0 **** -0.24
9847 H 185.48135585065907 73.32125744568532 99.44591492400451 H 0.0 **** 0.06
9848 H 187.25368071636075 73.19037094103646 99.54771270029636 H 0.0 **** 0.06
9849 H 186.42290798954122 74.60602408027535 100.23857985316033 H 0.0 **** 0.06
9850 H 186.50934696465663 74.39959949850834 98.47241035194276 H 0.0 **** 0.06
9851 C 49.70686729261439 60.21798907784263 112.02683871962279 C 0.0 **** -0.24
9852 H 49.99662559513466 60.43473564311866 113.05545174401573 H 0.0 **** 0.06
9853 H 50.5794207782952 60.30451090876764 111.37916127329743 H 0.0 **** 0.06
9854 H 48.945429747417265 60.92950761115581 111.70659204174655 H 0.0 **** 0.06
9855 H 49.30801595597582 59.206002176098664 111.9671832483553 H 0.0 **** 0.06
9856 C 180.15370593807256 194.47397880346387 142.43259065780626 C 0.0 **** -0.24
9857 H 180.91357150456594 195.12310837292796 142.86932379768703 H 0.0 **** 0.06
9858 H 180.338454449187 194.3663360277606 141.36419340812247 H 0.0 **** 0.06
9859 H 179.167525136248 194.9119222941598 142.58958628416812 H 0.0 **** 0.06
9860 H 180.1958762836802 193.49451565239656 142.90963289159288 H 0.0 **** 0.06
9861 C 139.92008176577906 133.05384884364628 160.33619765553868 C 0.0 **** -0.24
9862 H 139.55131133561144 133.9235434661967 160.8804469786781 H 0.0 **** 0.06
9863 H 140.11609452402195 132.24303561258654 161.0376722317216 H 0.0 **** 0.06
9864 H 140.84180032235577 133.31607512666426 159.81629480631716 H 0.0 **** 0.06
9865 H 139.17129311758788 132.73573001023306 159.61056988776414 H 0.0 **** 0.06
9866 C 168.87899758328658 93.48874075926659 115.41756265506243 C 0.0 **** -0.24
9867 H 167.95142090998286 93.71720462333977 115.94199134407475 H 0.0 **** 0.06
9868 H 169.72783462368437 93.78374541036851 116.0365066524883 H 0.0 **** 0.06
9869 H 168.90884205298119 94.03579004004322 114.47591407548566 H 0.0 **** 0.06
9870 H 168.92939644976656 92.41786075506644 115.21893821609692 H 0.0 **** 0.06
9871 C 139.1120402585126 167.94543685007736 48.058137785684806 C 0.0 **** -0.24
9872 H 138.69782741849227 168.50469778800058 47.2183910146572 H 0.0 **** 0.06
9873 H 138.30240074896847 167.60696893210795 48.70413701174154 H 0.0 **** 0.06
9874 H 139.78502720302762 168.58946821719863 48.62453505039666 H 0.0 **** 0.06
9875 H 139.66323878180626 167.08383277169162 47.682934830415064 H 0.0 **** 0.06
9876 C 59.413988745773565 21.098673456677332 76.13113423261332 C 0.0 **** -0.24
9877 H 59.748367857071685 20.284714960893922 75.48736185508331 H 0.0 **** 0.06
9878 H 58.375785115966096 21.339308122113678 75.90294383498558 H 0.0 **** 0.06
9879 H 60.03660754074372 21.976840567561084 75.96051758519312 H 0.0 **** 0.06
9880 H 59.49610681608624 20.79318822310023 77.17458288639905 H 0.0 **** 0.06
9881 C 189.5399334121769 167.4621601196211 183.28317272739716 C 0.0 **** -0.24
9882 H 190.4267526658179 166.85366135354195 183.10247526530532 H 0.0 **** 0.06
9883 H 189.24239694864042 167.36799117367732 184.3280693580034 H 0.0 **** 0.06
9884 H 188.7285643598524 167.11987528034595 182.6409320958479 H 0.0 **** 0.06
9885 H 189.76444262819166 168.5053592699803 183.06097951063452 H 0.0 **** 0.06
9886 C 40.515132204713666 119.0126144566934 103.0403036221293 C 0.0 **** -0.24
9887 H 39.81111143617906 118.62903447062902 103.7776731355381 H 0.0 **** 0.06
9888 H 40.85722709715384 120.00212880588035 103.34562173069821 H 0.0 **** 0.06
9889 H 40.02305839545079 119.08179795306054 102.06982502553785 H 0.0 **** 0.06
9890 H 41.369040683815314 118.33880617055468 102.96756853373293 H 0.0 **** 0.06
9891 C 12.695557865423261 26.65334300621288 147.9765251296512 C 0.0 **** -0.24
9892 H 12.332834516128592 27.681937926883847 147.97968352306813 H 0.0 **** 0.06
9893 H 12.527526585754785 26.206078686036733 148.95625713403777 H 0.0 **** 0.06
9894 H 13.761083963503353 26.644988750824012 147.75039244836776 H 0.0 **** 0.06
9895 H 12.158422302165263 26.081879065592744 147.2194154692457 H 0.0 **** 0.06
9896 C 111.3861360565289 8.824013460352887 81.05623062964975 C 0.0 **** -0.24
9897 H 110.86891684875005 8.230115387077035 81.8107126252238 H 0.0 **** 0.06
9898 H 110.7200373425479 8.993495863607002 80.2094373076776 H 0.0 **** 0.06
9899 H 112.27355457239261 8.290002859957944 80.71946113093645 H 0.0 **** 0.06
9900 H 111.67863710494768 9.781678548712996 81.48667969120464 H 0.0 **** 0.06
9901 C 66.90706778999517 79.62251047969028 138.5773264289062 C 0.0 **** -0.24
9902 H 67.48582133806278 80.10432350407322 137.78921715671004 H 0.0 **** 0.06
9903 H 65.98749476152288 80.18356507803989 138.74563530795723 H 0.0 **** 0.06
9904 H 67.49207388967741 79.59965321521597 139.4962764123867 H 0.0 **** 0.06
9905 H 66.66172806002368 78.60378354274866 138.27675442037054 H 0.0 **** 0.06
9906 C 115.41892731717942 106.36493776930934 147.95506650439745 C 0.0 **** -0.24
9907 H 115.88563509609085 106.6377004009988 148.9021182982565 H 0.0 **** 0.06
9908 H 116.18849097516878 106.24928258246729 147.19095043590602 H 0.0 **** 0.06
9909 H 114.72337628111396 107.14908704148678 147.65489593249217 H 0.0 **** 0.06
9910 H 114.8797796682926 105.42606130625893 148.07322927166342 H 0.0 **** 0.06
9911 C 96.21035368098228 154.25326261776073 85.38693594273715 C 0.0 **** -0.24
9912 H 96.89284742405766 154.5047703597305 84.57566483543599 H 0.0 **** 0.06
9913 H 96.6938416348313 153.54743466416977 86.0629366813877 H 0.0 **** 0.06
9914 H 95.30750931258689 153.8024093920577 84.9746567855293 H 0.0 **** 0.06
9915 H 95.94785122124495 155.1585873156117 85.93372778562278 H 0.0 **** 0.06
9916 C 139.0196037129867 127.61279973671495 17.62381735692759 C 0.0 **** -0.24
9917 H 139.6758633035017 127.31956672921308 16.80436056306661 H 0.0 **** 0.06
9918 H 138.3520689621605 128.40710157788274 17.2871845280917 H 0.0 **** 0.06
9919 H 139.62037653371425 127.97253994638669 18.45881656060115 H 0.0 **** 0.06
9920 H 138.43058175624878 126.75389691700704 17.943444851761512 H 0.0 **** 0.06
9921 C 199.13525527486155 160.48391592431756 62.851386396272616 C 0.0 **** -0.24
9922 H 198.3486047677377 160.9903194324902 62.29176495620611 H 0.0 **** 0.06
9923 H 200.044508584752 161.086303441299 62.82524394824735 H 0.0 **** 0.06
9924 H 199.33108253387377 159.51074954416768 62.40169144052015 H 0.0 **** 0.06
9925 H 198.81722074896368 160.34988126024655 63.8850243497578 H 0.0 **** 0.06
9926 C 153.4599618475974 41.941774564861774 75.02753328779212 C 0.0 **** -0.24
9927 H 152.63284994585808 42.58935214203615 75.3190189187646 H 0.0 **** 0.06
9928 H 153.30077479687017 41.58521333639921 74.00991535661495 H 0.0 **** 0.06
9929 H 153.51072976347285 41.09062335383837 75.70759648170102 H 0.0 **** 0.06
9930 H 154.39458931932361 42.50122086326108 75.07577255075812 H 0.0 **** 0.06
9931 C 184.59765679555636 34.82362961253453 23.191691123996094 C 0.0 **** -0.24
9932 H 184.05649584049047 34.2185830942726 23.918764161811083 H 0.0 **** 0.06
9933 H 185.66692339261638 34.77078624326927 23.3988244749478 H 0.0 **** 0.06
9934 H 184.2643158620678 35.85950081511663 23.261364472251017 H 0.0 **** 0.06
9935 H 184.40289208705067 34.445648297479636 22.187811386974374 H 0.0 **** 0.06
9936 C 28.868219799772305 46.28945288681075 123.29874288228825 C 0.0 **** -0.24
9937 H 28.426866602122658 45.85437298659417 124.19613273382828 H 0.0 **** 0.06
9938 H 28.345864828703796 47.213635609369135 123.04927688134626 H 0.0 **** 0.06
9939 H 28.77711138660294 45.58590138048311 122.47160552788455 H 0.0 **** 0.06
9940 H 29.921466299568294 46.504045940114906 123.47954197992863 H 0.0 **** 0.06
9941 C 64.5154104529501 154.15036126359388 159.58487671623368 C 0.0 **** -0.24
9942 H 64.47071582348588 153.95393314916154 160.6558842130666 H 0.0 **** 0.06
9943 H 63.74773486476869 154.87645512998378 159.3164133447521 H 0.0 **** 0.06
9944 H 64.34621383150596 153.2237248211266 159.03770575725832 H 0.0 **** 0.06
9945 H 65.49674488452101 154.5497225038569 159.3299845782582 H 0.0 **** 0.06
9946 C 26.685716734223575 1.9403969817718618 193.50629929424446 C 0.0 **** -0.24
9947 H 27.48395176148057 1.5219794796708825 192.89324275747072 H 0.0 **** 0.06
9948 H 26.07500285565598 2.6099297393131025 192.90090510879583 H 0.0 **** 0.06
9949 H 27.11922054448729 2.4953594843857587 194.33843375153774 H 0.0 **** 0.06
9950 H 26.064687419099016 1.1316091678866869 193.89342534392898 H 0.0 **** 0.06
9951 C 56.434673592939276 2.520187731248541 72.10767945751388 C 0.0 **** -0.24
9952 H 56.03413685366178 1.8913178072262156 72.90294773113462 H 0.0 **** 0.06
9953 H 56.00575399548882 2.2147204490362356 71.15360797775611 H 0.0 **** 0.06
9954 H 57.51838840453149 2.410707501823424 72.07103301727365 H 0.0 **** 0.06
9955 H 56.18107944416596 3.561414035200272 72.30554674495934 H 0.0 **** 0.06
9956 C 34.65957570935893 104.46663165294922 19.52752576433153 C 0.0 **** -0.24
9957 H 34.469954757928406 105.43524328980777 19.991709033198617 H 0.0 **** 0.06
9958 H 35.460535422940836 103.95772919652643 20.06506138064867 H 0.0 **** 0.06
9959 H 34.953880819115454 104.61296806534125 18.488556166205427 H 0.0 **** 0.06
9960 H 33.75358738293494 103.86257413436624 19.567592355694586 H 0.0 **** 0.06
9961 C 66.6202619338861 73.34896421613632 102.3210441630861 C 0.0 **** -0.24
9962 H 65.79603535572775 73.80330659748984 102.86947665414158 H 0.0 **** 0.06
9963 H 67.1291710099319 74.11240189716682 101.73198121452563 H 0.0 **** 0.06
9964 H 66.23201360874609 72.5762917181678 101.65640579409236 H 0.0 **** 0.06
9965 H 67.32371557412017 72.90340731236518 103.02464398596993 H 0.0 **** 0.06
9966 C 109.1184986857709 33.04611306485589 26.637039206967984 C 0.0 **** -0.24
9967 H 108.59027485188403 32.339781701168334 27.27738151019588 H 0.0 **** 0.06
9968 H 108.6088457063583 34.00976387062701 26.66364124658199 H 0.0 **** 0.06
9969 H 109.1317020494113 32.66949599853487 25.61497076148993 H 0.0 **** 0.06
9970 H 110.14111456077066 33.16558137049171 26.99433987775879 H 0.0 **** 0.06
9971 C 45.477692517080925 84.18736257108321 83.4428539643871 C 0.0 **** -0.24
9972 H 46.118637529515496 84.40218954622264 82.58874711590943 H 0.0 **** 0.06
9973 H 44.62099129796928 83.59807470030609 83.11438245842353 H 0.0 **** 0.06
9974 H 45.12992631916728 85.12260660023196 83.88145624155925 H 0.0 **** 0.06
9975 H 46.04125985741905 83.62434111556982 84.18782403616973 H 0.0 **** 0.06
9976 C 49.001162049437866 134.64783908280225 161.12287849371862 C 0.0 **** -0.24
9977 H 48.428593287653484 133.7290070803723 161.25627821321416 H 0.0 **** 0.06
9978 H 48.810083500400054 135.05246962291807 160.12803637743576 H 0.0 **** 0.06
9979 H 50.06444628113205 134.43240607685198 161.22943810166313 H 0.0 **** 0.06
9980 H 48.70024330228887 135.37538967288242 161.87602503152542 H 0.0 **** 0.06
9981 C 195.06145267266987 69.38982658088662 13.019606377315881 C 0.0 **** -0.24
9982 H 194.52292336812982 69.40347104303765 13.96745167594338 H 0.0 **** 0.06
9983 H 195.6726986569277 70.28906341904627 12.935867718368883 H 0.0 **** 0.06
9984 H 194.34605841087327 69.35792655161691 12.196987904974492 H 0.0 **** 0.06
9985 H 195.7017454686179 68.50913393152757 12.977639020728816 H 0.0 **** 0.06
9986 C 183.56574955595977 70.59046604143543 168.5276813801594 C 0.0 **** -0.24
9987 H 183.96714930443656 70.42586333073137 169.5277988129738 H 0.0 **** 0.06
9988 H 182.61557459759334 70.06641938680843 168.426992137174 H 0.0 **** 0.06
9989 H 184.27048011905958 70.21151258993157 167.78705136990314 H 0.0 **** 0.06
9990 H 183.41210422790869 71.65725428752847 168.36890289757133 H 0.0 **** 0.06
9991 C 21.926496653793436 27.374954874566768 62.62039215939427 C 0.0 **** -0.24
9992 H 21.25116912617719 26.71410481701767 63.16442582424693 H 0.0 **** 0.06
9993 H 21.43612824921763 28.33396099010986 62.44943658594252 H 0.0 **** 0.06
9994 H 22.184334914265264 26.92148916648071 61.66311112754835 H 0.0 **** 0.06
9995 H 22.832257772845367 27.52868039250295 63.20564160122774 H 0.0 **** 0.06
9996 C 24.35295152804605 44.06557237713531 110.94987329783257 C 0.0 **** -0.24
9997 H 23.530704701696436 44.76581958492929 110.80198587007428 H 0.0 **** 0.06
9998 H 25.15211984040147 44.28758193619308 110.24270397910615 H 0.0 **** 0.06
9999 H 23.996629784650224 43.04802320527921 110.78891310334657 H 0.0 **** 0.06
10000 H 24.73192958880759 44.159858690623395 111.96784206818907 H 0.0 **** 0.06
10001 C 111.10282173141371 7.296177344191221 122.40753540373026 C 0.0 **** -0.24
10002 H 110.52483244434245 7.486676301122024 121.5027314283488 H 0.0 **** 0.06
10003 H 111.6290912141252 6.347698399966632 122.30858709065262 H 0.0 **** 0.06
10004 H 110.43079691941546 7.252244235501628 123.26539800697401 H 0.0 **** 0.06
10005 H 111.82485539126321 8.10026837509237 122.5522720833643 H 0.0 **** 0.06
10006 C 154.27730611143176 111.66904019512674 79.13642526966873 C 0.0 **** -0.24
10007 H 155.07609870618376 112.4106624656547 79.16179245406084 H 0.0 **** 0.06
10008 H 153.4504239552515 112.00536188353462 79.76145110200994 H 0.0 **** 0.06
10009 H 154.65348414850422 110.71729569529282 79.51065402065953 H 0.0 **** 0.06
10010 H 153.9307619257802 111.54465455765828 78.11027857819751 H 0.0 **** 0.06
10011 C 157.83108894603794 32.57302518109992 35.497224665568126 C 0.0 **** -0.24
10012 H 157.5414042894897 32.49645511145866 34.44886188361693 H 0.0 **** 0.06
10013 H 158.90907862792963 32.71778119516111 35.566525591494496 H 0.0 **** 0.06
10014 H 157.5521812910281 31.657038366806376 36.01832289433682 H 0.0 **** 0.06
10015 H 157.32044019924587 33.42118482927205 35.95337020504428 H 0.0 **** 0.06
10016 C 58.95739304103381 132.42481379438493 141.6438544212708 C 0.0 **** -0.24
10017 H 60.03475381025392 132.5935696033235 141.63245448973657 H 0.0 **** 0.06
10018 H 58.721584890409986 131.63326883194375 142.354849330793 H 0.0 **** 0.06
10019 H 58.62571908565013 132.13198459512867 140.64818273418874 H 0.0 **** 0.06
10020 H 58.4504807184115 133.34323031924396 141.94054057592004 H 0.0 **** 0.06
10021 C 139.1265832849407 81.16606123517977 70.28061737714509 C 0.0 **** -0.24
10022 H 138.36917180718058 80.93576508320555 69.53139363430586 H 0.0 **** 0.06
10023 H 140.076601006033 80.71989694261057 69.98388775387707 H 0.0 **** 0.06
10024 H 138.81994640639266 80.76107464739667 71.24512729179915 H 0.0 **** 0.06
10025 H 139.24250646299413 82.2469943080408 70.36002261854787 H 0.0 **** 0.06
10026 C 8.59166437697715 182.03191428427272 38.44830797027902 C 0.0 **** -0.24
10027 H 8.246550439845635 182.13141544556538 37.4186873636024 H 0.0 **** 0.06
10028 H 7.890810091154975 181.41243238125517 39.00712735562507 H 0.0 **** 0.06
10029 H 8.651932579432128 183.01774730820728 38.90775942847665 H 0.0 **** 0.06
10030 H 9.576134330230019 181.56537184928587 38.4570099384303 H 0.0 **** 0.06
10031 C 133.28414116138822 198.56084690659378 90.91211462550757 C 0.0 **** -0.24
10032 H 133.13741800955438 199.25479689642054 91.73968722523924 H 0.0 **** 0.06
10033 H 132.71699120198423 197.6485954947796 91.09916805024272 H 0.0 **** 0.06
10034 H 134.34288882197018 198.31944346877702 90.823078491458 H 0.0 **** 0.06
10035 H 132.9371084602143 199.02090300492944 89.98605663226232 H 0.0 **** 0.06
10036 C 198.00899185280616 55.175198813340174 81.87679944356023 C 0.0 **** -0.24
10037 H 197.0330480060454 55.64951050792759 81.97616085242572 H 0.0 **** 0.06
10038 H 198.59277630879592 55.70216024336706 81.12184179564815 H 0.0 **** 0.06
10039 H 197.87916352770094 54.13584629547499 81.57651522126116 H 0.0 **** 0.06
10040 H 198.53019908461673 55.215203303126 82.83350752561535 H 0.0 **** 0.06
10041 C 183.25611047354937 196.3581026856447 194.11919501830778 C 0.0 **** -0.24
10042 H 183.56920188459785 195.35286816000118 193.8349890632058 H 0.0 **** 0.06
10043 H 182.2680575095547 196.3145960952482 194.5775280867338 H 0.0 **** 0.06
10044 H 183.218254556747 196.99019142069332 193.23111986590868 H 0.0 **** 0.06
10045 H 183.9700546347379 196.77346581649198 194.83030252253036 H 0.0 **** 0.06
10046 C 70.48580817189554 118.48933572132165 194.50321590412977 C 0.0 **** -0.24
10047 H 69.94729736245574 119.3477496796516 194.1029931614252 H 0.0 **** 0.06
10048 H 71.00649650039571 117.97798274540386 193.6931612789878 H 0.0 **** 0.06
10049 H 69.78043453935959 117.8038834894185 194.97168034428535 H 0.0 **** 0.06
10050 H 71.2105249408798 118.82783017720652 195.24373382536103 H 0.0 **** 0.06
10051 C 49.40721427536829 196.11015354329447 183.4781829678176 C 0.0 **** -0.24
10052 H 49.30567351072378 195.09058210776305 183.85145266429606 H 0.0 **** 0.06
10053 H 49.78857414013176 196.7517313437985 184.27239531720122 H 0.0 **** 0.06
10054 H 48.43343521308984 196.47542220333025 183.15206669347202 H 0.0 **** 0.06
10055 H 50.09957708140901 196.12178657519976 182.635696098307 H 0.0 **** 0.06
10056 C 129.2240058237852 180.78947095650904 104.14536892138062 C 0.0 **** -0.24
10057 H 128.84203933054596 179.76898556510105 104.1088332186738 H 0.0 **** 0.06
10058 H 130.26516985359717 180.77652652734517 104.46961051879879 H 0.0 **** 0.06
10059 H 128.63132092369983 181.37341058903766 104.84970605833996 H 0.0 **** 0.06
10060 H 129.1574101764059 181.23878755097542 103.1543072133461 H 0.0 **** 0.06
10061 C 149.48466664611885 130.22733749669493 159.91336814694472 C 0.0 **** -0.24
10062 H 149.06155620620734 130.31081369318244 160.9140373959443 H 0.0 **** 0.06
10063 H 148.68009016267453 130.237991065453 159.17632681705618 H 0.0 **** 0.06
10064 H 150.04023747861856 129.29434007207138 159.83076977001335 H 0.0 **** 0.06
10065 H 150.15486907513906 131.06705380435668 159.73155260059755 H 0.0 **** 0.06
10066 C 49.948637250763355 81.07432719855956 181.52756972805037 C 0.0 **** -0.24
10067 H 49.42720114399464 82.03186673159655 181.50092124754673 H 0.0 **** 0.06
10068 H 50.62514401426462 81.00599328833471 180.67604184038677 H 0.0 **** 0.06
10069 H 49.220661957529785 80.26436388986855 181.47980889712383 H 0.0 **** 0.06
10070 H 50.51864745718848 80.99665124127728 182.4530957841356 H 0.0 **** 0.06
10071 C 173.2745652713124 154.28611415001274 96.72538439786038 C 0.0 **** -0.24
10072 H 173.9336754916306 154.63778753728 97.51946892785907 H 0.0 **** 0.06
10073 H 172.7177244742169 155.1291626100202 96.31569022535894 H 0.0 **** 0.06
10074 H 172.57769907793985 153.55206894013838 97.12985296200083 H 0.0 **** 0.06
10075 H 173.87009789798566 153.82645433586106 95.93682595298142 H 0.0 **** 0.06
10076 C 50.300762047892675 131.58069262419016 4.759073174484513 C 0.0 **** -0.24
10077 H 49.22018105525822 131.44515474933027 4.769115209430083 H 0.0 **** 0.06
10078 H 50.70992320220985 131.30877603909525 5.7328022092225694 H 0.0 **** 0.06
10079 H 50.53392697615904 132.62462598178521 4.5463222119230124 H 0.0 **** 0.06
10080 H 50.73978410405043 130.94674755604152 3.9897826369987115 H 0.0 **** 0.06
10081 C 198.2357763412578 182.34808182465162 145.7314711272855 C 0.0 **** -0.24
10082 H 199.20952513953569 181.85734502793701 145.71596689103438 H 0.0 **** 0.06
10083 H 197.6222248760572 181.91369432641807 146.5199974474091 H 0.0 **** 0.06
10084 H 197.74459492306264 182.20808007122926 144.76845866161042 H 0.0 **** 0.06
10085 H 198.36993070035214 183.41365874249627 145.91886411671956 H 0.0 **** 0.06
10086 C 16.30520336246751 2.4143311674229935 26.13227424402794 C 0.0 **** -0.24
10087 H 16.427857517546485 1.3810205235138113 25.807832026729216 H 0.0 **** 0.06
10088 H 15.249338079372535 2.685093363045901 26.093299202327273 H 0.0 **** 0.06
10089 H 16.87367039599792 3.0711478506067067 25.473111305528334 H 0.0 **** 0.06
10090 H 16.670643316279254 2.5203474393219025 27.153656577212814 H 0.0 **** 0.06
10091 C 181.96124812738088 79.82269044820043 28.993341516265843 C 0.0 **** -0.24
10092 H 182.00814014909406 80.8646020550454 29.309621483819683 H 0.0 **** 0.06
10093 H 181.05318252793626 79.36468885589392 29.385078780891646 H 0.0 **** 0.06
10094 H 182.83231520352558 79.28865329043754 29.37532866720646 H 0.0 **** 0.06
10095 H 181.95353286289765 79.77273486802721 27.905139527863298 H 0.0 **** 0.06
10096 C 23.620801743781158 108.61995084194962 17.570677539205505 C 0.0 **** -0.24
10097 H 24.330718583782186 108.90804929699596 18.347481306338835 H 0.0 **** 0.06
10098 H 24.1008419381223 107.92830339496521 16.878813470177562 H 0.0 **** 0.06
10099 H 23.29447096330489 109.50806728368809 17.030399768776363 H 0.0 **** 0.06
10100 H 22.75878072319307 108.1357902896574 18.02888926744602 H 0.0 **** 0.06
10101 C 107.92453504749142 0.9073444394421983 107.3903195529789 C 0.0 **** -0.24
10102 H 108.92860567317183 1.2750431082793057 107.17636962370892 H 0.0 **** 0.06
10103 H 107.19106621130192 1.65322003034575 107.08310991094424 H 0.0 **** 0.06
10104 H 107.82744725936703 0.7200316439570997 108.46032637025172 H 0.0 **** 0.06
10105 H 107.75321988582428 -0.01887423100390606 106.84187651085801 H 0.0 **** 0.06
10106 C 168.10142094315006 133.95193851899415 126.9443118128037 C 0.0 **** -0.24
10107 H 167.19570006355843 134.11532846160145 126.36078024980563 H 0.0 **** 0.06
10108 H 168.6949491104294 134.86729088249197 126.95743033068013 H 0.0 **** 0.06
10109 H 168.6837436418232 133.14785925822218 126.49398359181956 H 0.0 **** 0.06
10110 H 167.83263176151527 133.67802785102415 127.96425543497878 H 0.0 **** 0.06
10111 C 69.90687392140873 118.78053462720743 153.49092864108007 C 0.0 **** -0.24
10112 H 70.89791814991295 118.62119155388581 153.9163764222059 H 0.0 **** 0.06
10113 H 69.92007441070727 119.67478777414726 152.86747315069272 H 0.0 **** 0.06
10114 H 69.18296429333842 118.90959025794186 154.2962355397551 H 0.0 **** 0.06
10115 H 69.62801568374596 117.91828225006822 152.88560013996624 H 0.0 **** 0.06
10116 C 115.68432671372295 116.16577395564673 133.80160626914457 C 0.0 **** -0.24
10117 H 114.8082572156386 116.60299079496883 133.32524160027737 H 0.0 **** 0.06
10118 H 116.18170827074641 116.92000749266867 134.41128490393967 H 0.0 **** 0.06
10119 H 116.37239674538375 115.80519765358349 133.03717377507053 H 0.0 **** 0.06
10120 H 115.37566444964966 115.33258206441064 134.43448825097136 H 0.0 **** 0.06
10121 C 15.205407374022727 103.21174408462093 152.42943359663013 C 0.0 **** -0.24
10122 H 14.275558672388946 103.3570706649221 151.87924338685693 H 0.0 **** 0.06
10123 H 15.79347800154224 102.42938244750377 151.94728741814748 H 0.0 **** 0.06
10124 H 14.978050490067957 102.91724208063124 153.45436291936545 H 0.0 **** 0.06
10125 H 15.773505670870492 104.14146739482635 152.43556168913577 H 0.0 **** 0.06
10126 C 183.56543277366896 177.03771267943398 24.62613985273272 C 0.0 **** -0.24
10127 H 182.60503186785894 176.52475487020675 24.648833975207765 H 0.0 **** 0.06
10128 H 184.36142073644808 176.32697208178658 24.84972576928702 H 0.0 **** 0.06
10129 H 183.57035875667214 177.83401280584312 25.370020563724196 H 0.0 **** 0.06
10130 H 183.72697709707631 177.46384890192832 23.63639694873814 H 0.0 **** 0.06
10131 C 66.9414187408247 20.556724939881292 7.122131177695046 C 0.0 **** -0.24
10132 H 66.04361696871467 20.3966478902573 7.720330165530861 H 0.0 **** 0.06
10133 H 67.6557850370848 19.758087665538852 7.320955149656825 H 0.0 **** 0.06
10134 H 67.38495888913747 21.516865587580526 7.3838117723009375 H 0.0 **** 0.06
10135 H 66.67763232755487 20.554753559492497 6.065201902119142 H 0.0 **** 0.06
10136 C 19.965380636359498 57.82628937074011 192.57734742284507 C 0.0 **** -0.24
10137 H 19.28729057248421 57.259772299978565 193.21697543536004 H 0.0 **** 0.06
10138 H 19.661277915833523 58.87279761411905 192.5644746522727 H 0.0 **** 0.06
10139 H 19.929431456750535 57.42412455348243 191.56498000210823 H 0.0 **** 0.06
10140 H 20.980312212268416 57.74632781239613 192.96442065740104 H 0.0 **** 0.06
10141 C 64.2455963708555 170.6072192488237 73.20661296219214 C 0.0 **** -0.24
10142 H 63.230010427495216 170.93975754912253 73.42129913427232 H 0.0 **** 0.06
10143 H 64.66487204984556 171.21458279102154 72.40500701371724 H 0.0 **** 0.06
10144 H 64.22676012448385 169.56128254384248 72.89938617164569 H 0.0 **** 0.06
10145 H 64.85919937218128 170.71172757858244 74.10129561177928 H 0.0 **** 0.06
10146 C 137.39410671448533 40.56924911209347 131.18254133712486 C 0.0 **** -0.24
10147 H 136.4479363158757 40.107149638134615 130.8983224660173 H 0.0 **** 0.06
10148 H 138.1962711170926 40.159789638723 130.56937425426892 H 0.0 **** 0.06
10149 H 137.59653401823806 40.36354723453911 132.23375426118545 H 0.0 **** 0.06
10150 H 137.33210755093205 41.646925885721316 131.02855245497418 H 0.0 **** 0.06
10151 C 78.63688960123557 43.788780689989295 144.47123763759714 C 0.0 **** -0.24
10152 H 79.55845723423278 43.20581020119482 144.46583278443003 H 0.0 **** 0.06
10153 H 78.3527618565729 44.00877686600063 145.50019088464205 H 0.0 **** 0.06
10154 H 77.84354217641794 43.21766495038855 143.98849819561894 H 0.0 **** 0.06
10155 H 78.79481739038278 44.72180122557637 143.92954843420236 H 0.0 **** 0.06
10156 C 80.93117152253106 63.25112343215859 40.23434334022767 C 0.0 **** -0.24
10157 H 81.97656598980396 63.37739955971509 39.953885828870455 H 0.0 **** 0.06
10158 H 80.61769031477047 64.08844982527339 40.857337492091915 H 0.0 **** 0.06
10159 H 80.81442019109957 62.32081330989391 40.79046463215212 H 0.0 **** 0.06
10160 H 80.31592259147084 63.215476858540654 39.33501427498038 H 0.0 **** 0.06
10161 C 128.61024749996795 92.91021094575808 18.540381076539518 C 0.0 **** -0.24
10162 H 128.08365469827575 91.96522216661265 18.669438761826825 H 0.0 **** 0.06
10163 H 129.48866015474098 92.92793399873784 19.187040048986717 H 0.0 **** 0.06
10164 H 127.94848851329283 93.73501993267394 18.80456635130446 H 0.0 **** 0.06
10165 H 128.92270351267283 93.01372944708709 17.501212733683417 H 0.0 **** 0.06
10166 C 121.5725594848611 110.40953983320591 131.98995936185798 C 0.0 **** -0.24
10167 H 121.43631860460977 111.40905398567082 132.40439342269872 H 0.0 **** 0.06
10168 H 121.68259504202467 110.47724871516814 130.90810523853645 H 0.0 **** 0.06
10169 H 120.70452198469965 109.79593660233343 132.22984400833548 H 0.0 **** 0.06
10170 H 122.46670138758688 109.95771306177053 132.4188270537153 H 0.0 **** 0.06
10171 C 128.66550316910377 132.04575380626343 68.55021666146655 C 0.0 **** -0.24
10172 H 129.05883040226377 132.73334801512783 69.29923640954709 H 0.0 **** 0.06
10173 H 128.54681959465142 131.05664316171305 68.99209109518233 H 0.0 **** 0.06
10174 H 129.35914917538526 131.9882422246486 67.71083454466321 H 0.0 **** 0.06
10175 H 127.69912952665277 132.40580437947872 68.19817229475609 H 0.0 **** 0.06
10176 C 8.114688864283607 72.66927969793886 83.9449502457768 C 0.0 **** -0.24
10177 H 7.496626008850512 73.44023597740227 84.40636050744138 H 0.0 **** 0.06
10178 H 7.797951968106133 71.68871980253499 84.30032147787094 H 0.0 **** 0.06
10179 H 9.158436299240151 72.83378460485505 84.21133548459841 H 0.0 **** 0.06
10180 H 8.004292340630485 72.71714808740421 82.86067447316086 H 0.0 **** 0.06
10181 C 9.821632970894946 59.797927504595464 196.42037064426043 C 0.0 **** -0.24
10182 H 10.020726667896383 58.81654892841004 196.85140716440944 H 0.0 **** 0.06
10183 H 9.306465606241396 60.41896557952151 197.1529291539556 H 0.0 **** 0.06
10184 H 9.195308571071742 59.68406855788578 195.5346451763428 H 0.0 **** 0.06
10185 H 10.763863903608481 60.26927438867557 196.14054271448478 H 0.0 **** 0.06
10186 C 9.314957660540841 95.98997403131938 77.52996381233112 C 0.0 **** -0.24
10187 H 10.366448594568041 96.09116286561905 77.26226004768978 H 0.0 **** 0.06
10188 H 8.99251025002043 96.8758069366452 78.07668165745655 H 0.0 **** 0.06
10189 H 9.18275938318699 95.10705819335251 78.15702279411788 H 0.0 **** 0.06
10190 H 8.718286942817628 95.88446626283456 76.62395672325589 H 0.0 **** 0.06
10191 C 104.41631294290138 0.7220813600869747 90.2978108653129 C 0.0 **** -0.24
10192 H 103.42607224427735 0.29348206966645307 90.45501362767175 H 0.0 **** 0.06
10193 H 104.46861276349509 1.6997284746005334 90.77726632431313 H 0.0 **** 0.06
10194 H 104.59950438095592 0.831163823166662 89.22930369389962 H 0.0 **** 0.06
10195 H 105.17001420199247 0.06444822781577386 90.73046863986605 H 0.0 **** 0.06
10196 C 142.11799505557093 28.61522114918253 57.90203614547619 C 0.0 **** -0.24
10197 H 141.3093637628457 28.01245704073304 58.31693200138278 H 0.0 **** 0.06
10198 H 142.53925930339219 28.107563081386303 57.033345499259696 H 0.0 **** 0.06
10199 H 142.89303682798683 28.750925439365517 58.65563766855857 H 0.0 **** 0.06
10200 H 141.7281589022415 29.587838126382877 57.6008457009667 H 0.0 **** 0.06
10201 C 102.80489599106349 100.51000871428016 64.9578526550103 C 0.0 **** -0.24
10202 H 102.50887915645578 101.4337438403609 65.45362891769418 H 0.0 **** 0.06
10203 H 103.14506670899362 99.79078889370453 65.70299788753346 H 0.0 **** 0.06
10204 H 103.61386426956696 100.71693981697936 64.25612510148841 H 0.0 **** 0.06
10205 H 101.95200065125076 100.09850781267878 64.41726385653067 H 0.0 **** 0.06
10206 C 100.99983077259373 31.865913256648696 60.98571241181287 C 0.0 **** -0.24
10207 H 100.74214921951636 31.166500966726147 61.78120053505552 H 0.0 **** 0.06
10208 H 101.99748366645395 32.2680231508204 61.16465385093585 H 0.0 **** 0.06
10209 H 100.27667476215197 32.68055201134251 60.96968933068308 H 0.0 **** 0.06
10210 H 100.9835361612952 31.346412850846946 60.027091778866065 H 0.0 **** 0.06
10211 C 167.25958835707857 12.498627675129114 70.75666717223788 C 0.0 **** -0.24
10212 H 166.6518842778135 12.356508846765337 69.86338745181445 H 0.0 **** 0.06
10213 H 167.8888119595263 11.622228415649715 70.91093535378121 H 0.0 **** 0.06
10214 H 166.60753564814746 12.634653986343778 71.62051833357714 H 0.0 **** 0.06
10215 H 167.88733864226106 13.380565251442079 70.63322345185907 H 0.0 **** 0.06
10216 C 154.1192921305947 78.60215894649656 173.34122820062458 C 0.0 **** -0.24
10217 H 154.7641634285545 79.08918032097401 174.07296167698655 H 0.0 **** 0.06
10218 H 154.23876050999834 77.52107560157677 173.41417198047944 H 0.0 **** 0.06
10219 H 154.3957671019129 78.93120880437067 172.3388637496063 H 0.0 **** 0.06
10220 H 153.08096051157358 78.86778364624345 173.53734711764315 H 0.0 **** 0.06
10221 C 186.7002410919453 57.67156163396612 67.24918748811905 C 0.0 **** -0.24
10222 H 186.49177886119566 57.856353276266304 66.1952699226016 H 0.0 **** 0.06
10223 H 187.13402713380623 58.566990723278934 67.69550925685115 H 0.0 **** 0.06
10224 H 187.40275076902657 56.84367360342583 67.33990807132813 H 0.0 **** 0.06
10225 H 185.77309831516737 57.42101199996773 67.76397853220018 H 0.0 **** 0.06
10226 C 77.16892295241351 161.28221830611136 168.27949103065714 C 0.0 **** -0.24
10227 H 77.48845979868118 161.7085397988363 167.32791239588823 H 0.0 **** 0.06
10228 H 77.65566233496341 160.3173881926333 168.425430503506 H 0.0 **** 0.06
10229 H 76.0879764221929 161.14666328665294 168.27059767113406 H 0.0 **** 0.06
10230 H 77.44452719245602 161.95567890866144 169.090450821096 H 0.0 **** 0.06
10231 C 176.06351601139667 96.01927345182028 69.57419446649916 C 0.0 **** -0.24
10232 H 176.5420589428918 95.06387334590704 69.78723662835677 H 0.0 **** 0.06
10233 H 175.47165270938441 96.32963809353339 70.43552559461658 H 0.0 **** 0.06
10234 H 175.41256570300908 95.91476248231976 68.70512377007493 H 0.0 **** 0.06
10235 H 176.8259048665673 96.77074378953776 69.36756615528597 H 0.0 **** 0.06
10236 C 104.26422239552323 58.84711449264866 3.5611721262366984 C 0.0 **** -0.24
10237 H 103.29536349995865 59.18373479746779 3.1921045232560346 H 0.0 **** 0.06
10238 H 104.19310878017168 57.80178526119079 3.864329458157954 H 0.0 **** 0.06
10239 H 104.55711563620554 59.454207254400146 4.417944918247173 H 0.0 **** 0.06
10240 H 105.00911385064975 58.946865771894394 2.7727045936435957 H 0.0 **** 0.06
10241 C 177.70217333897548 151.6855594874574 13.4980620601673 C 0.0 **** -0.24
10242 H 178.01072826193035 151.75751895065667 12.455530833195112 H 0.0 **** 0.06
10243 H 177.25672309561656 150.70762251851107 13.679001374114286 H 0.0 **** 0.06
10244 H 176.97007423628568 152.4636051828864 13.714296843576896 H 0.0 **** 0.06
10245 H 178.57051036594456 151.81552821768338 14.144066411311229 H 0.0 **** 0.06
10246 C 117.16356858440224 36.49850275347961 161.07924925692154 C 0.0 **** -0.24
10247 H 116.18183912252039 36.88137089539998 161.3561588258682 H 0.0 **** 0.06
10248 H 117.91919484925899 36.92647513745857 161.7383670603577 H 0.0 **** 0.06
10249 H 117.38231852927086 36.77286118171594 160.046910837166 H 0.0 **** 0.06
10250 H 117.1694644338763 35.41267892121104 161.1743414559821 H 0.0 **** 0.06
10251 C 104.41678429848125 35.171127569528096 54.1247223152635 C 0.0 **** -0.24
10252 H 104.51835117056149 34.31811790340248 54.796831232221024 H 0.0 **** 0.06
10253 H 104.04301160196414 36.03082567327908 54.683196020818684 H 0.0 **** 0.06
10254 H 103.71628824916837 34.92352922209005 53.326922820513005 H 0.0 **** 0.06
10255 H 105.38830785151637 35.41131320942026 53.69369620243002 H 0.0 **** 0.06
10256 C 112.82339598099543 126.13736855433083 43.75220497223884 C 0.0 **** -0.24
10257 H 112.2640059194332 126.57531197634876 42.925055640225196 H 0.0 **** 0.06
10258 H 112.76684405105789 126.79787061824015 44.61747636682114 H 0.0 **** 0.06
10259 H 113.86414972823906 126.00892793804286 43.458354188892315 H 0.0 **** 0.06
10260 H 112.39461932489434 125.1683123096989 44.006095185990006 H 0.0 **** 0.06
10261 C 144.74348872332908 58.95469982403324 185.93659507802113 C 0.0 **** -0.24
10262 H 145.08620393594802 58.95805370205187 186.97089759584787 H 0.0 **** 0.06
10263 H 145.33047179227307 59.66794294312018 185.3567417842616 H 0.0 **** 0.06
10264 H 143.69141515539692 59.23762040814046 185.90242151513843 H 0.0 **** 0.06
10265 H 144.86514304857693 57.957038622688515 185.51613460527244 H 0.0 **** 0.06
10266 C 9.206229922964347 49.73863083705194 2.5701625071381002 C 0.0 **** -0.24
10267 H 8.431400613210812 49.505968547627276 1.8401704067944493 H 0.0 **** 0.06
10268 H 8.840385115466546 49.51447777980917 3.572251160745651 H 0.0 **** 0.06
10269 H 9.460358332289871 50.79712452633393 2.5032478362814246 H 0.0 **** 0.06
10270 H 10.09247129178705 49.13926081232867 2.362618573925282 H 0.0 **** 0.06
10271 C 65.71083102935205 37.56493718732993 145.04711028282054 C 0.0 **** -0.24
10272 H 66.34995408869105 36.843916803492405 144.53648710993826 H 0.0 **** 0.06
10273 H 66.0196596901448 38.576632147683966 144.7806954067285 H 0.0 **** 0.06
10274 H 65.79921396767622 37.42947110313341 146.1248932255258 H 0.0 **** 0.06
10275 H 64.6754538419944 37.41050268561587 144.74449876225967 H 0.0 **** 0.06
10276 C 134.71225266170524 104.74864609943779 183.83835148846092 C 0.0 **** -0.24
10277 H 134.84853888639822 105.82202030196703 183.710521344048 H 0.0 **** 0.06
10278 H 135.5748663983525 104.22163639786663 183.43298010773287 H 0.0 **** 0.06
10279 H 133.81188379413936 104.43216471650578 183.3113921657997 H 0.0 **** 0.06
10280 H 134.6104525853255 104.51975745695523 184.90003715551578 H 0.0 **** 0.06
10281 C 120.30485752255191 174.7261561959338 59.627827683399815 C 0.0 **** -0.24
10282 H 119.66793918997337 174.35065908242228 58.82714508073269 H 0.0 **** 0.06
10283 H 119.81159949858852 175.56379656713824 60.12175260689439 H 0.0 **** 0.06
10284 H 121.25540605981507 175.05811610279557 59.21203597004404 H 0.0 **** 0.06
10285 H 120.48298195620333 173.9312285544541 60.352626574181116 H 0.0 **** 0.06
10286 C 160.5992780136755 185.56560259184386 131.99199853105125 C 0.0 **** -0.24
10287 H 160.1655328754997 186.37612257962053 131.40666599480926 H 0.0 **** 0.06
10288 H 159.80186122892897 184.93321980174474 132.38284526577854 H 0.0 **** 0.06
10289 H 161.1727057588358 185.98191598250858 132.81939893862622 H 0.0 **** 0.06
10290 H 161.25606719211478 184.97138442112228 131.35683601751302 H 0.0 **** 0.06
10291 C 171.50505840171112 77.66278089086299 40.58841708166139 C 0.0 **** -0.24
10292 H 170.49253168799922 78.0307699444773 40.7558249806749 H 0.0 **** 0.06
10293 H 171.99111226123946 77.48980327568502 41.549201187476 H 0.0 **** 0.06
10294 H 172.07051649343236 78.40186156807593 40.02189827703029 H 0.0 **** 0.06
10295 H 171.46430477432523 76.72887790261407 40.028099291459796 H 0.0 **** 0.06
10296 C 114.4941058911161 154.1170851393359 72.17671090500737 C 0.0 **** -0.24
10297 H 114.86423847504872 153.67968846252853 71.24941283977425 H 0.0 **** 0.06
10298 H 114.47637563126273 155.2035319134211 72.0836208722325 H 0.0 **** 0.06
10299 H 115.15143422048982 153.8328486206487 72.99898079413221 H 0.0 **** 0.06
10300 H 113.48619371579503 153.75229620141783 72.37399687799366 H 0.0 **** 0.06
10301 C 106.62163874077964 85.23605132147395 78.55683348905049 C 0.0 **** -0.24
10302 H 105.99171518659432 85.26908166850458 77.66827005289628 H 0.0 **** 0.06
10303 H 107.50578674795702 85.85497565251663 78.39808306568631 H 0.0 **** 0.06
10304 H 106.92661255275982 84.20738769116849 78.74789835381634 H 0.0 **** 0.06
10305 H 106.06223106667028 85.61492966101696 79.41196443362116 H 0.0 **** 0.06
10306 C 87.3361166292814 75.16410067200997 39.70000788923369 C 0.0 **** -0.24
10307 H 87.79901714484802 74.2478020763138 39.333286354249026 H 0.0 **** 0.06
10308 H 86.27633181729007 75.1619052445534 39.446751108282655 H 0.0 **** 0.06
10309 H 87.81858555970874 76.02501030101632 39.23839441349389 H 0.0 **** 0.06
10310 H 87.45076165135418 75.22020399706759 40.78246787287614 H 0.0 **** 0.06
10311 C 138.23681180986125 192.28482233149003 44.14879479232694 C 0.0 **** -0.24
10312 H 138.19764603307976 191.2775061679663 43.734941125151735 H 0.0 **** 0.06
10313 H 139.1956368314955 192.74152770982718 43.90335954842486 H 0.0 **** 0.06
10314 H 138.1240186576752 192.23648115815107 45.23196030254901 H 0.0 **** 0.06
10315 H 137.42917131980437 192.88291304634566 43.72572974185998 H 0.0 **** 0.06
10316 C 0.9768215417592785 108.29055936019145 187.0116256381001 C 0.0 **** -0.24
10317 H 1.0581915626339011 108.23405158262418 188.0971340323499 H 0.0 **** 0.06
10318 H 1.0573918944511362 109.33109140111239 186.69537068321688 H 0.0 **** 0.06
10319 H 0.013073908626509478 107.88875074811489 186.69818660111667 H 0.0 **** 0.06
10320 H 1.7786220872839138 107.70930600558435 186.55684756736008 H 0.0 **** 0.06
10321 C 47.16629289749177 136.20850990508129 47.220353618535 C 0.0 **** -0.24
10322 H 46.768864367200024 136.60947898462857 48.15300899596002 H 0.0 **** 0.06
10323 H 46.41668257165078 135.57088396299002 46.750873888612546 H 0.0 **** 0.06
10324 H 48.06215512065387 135.62404890438037 47.42887912838398 H 0.0 **** 0.06
10325 H 47.415765167303846 137.03051111750415 46.549799173238966 H 0.0 **** 0.06
10326 C 143.40812610482877 113.36434603040459 182.5577631013583 C 0.0 **** -0.24
10327 H 142.54205463287337 113.75253849544427 183.09539916333884 H 0.0 **** 0.06
10328 H 144.04349823247645 112.80761780220877 183.24660606073124 H 0.0 **** 0.06
10329 H 143.97260172029107 114.19426961485269 182.13090851432855 H 0.0 **** 0.06
10330 H 143.0724716277665 112.7045228389022 181.75798244318725 H 0.0 **** 0.06
10331 C 89.73586548736037 0.1558035365122521 101.98286038817125 C 0.0 **** -0.24
10332 H 89.834929567107 -0.8688464577294042 102.34228965411316 H 0.0 **** 0.06
10333 H 88.71479594693645 0.5011604031041372 102.15020538696078 H 0.0 **** 0.06
10334 H 89.96205345488409 0.18943015268604313 100.91767687790423 H 0.0 **** 0.06
10335 H 90.43053427449064 0.7991620679173934 102.52335624345699 H 0.0 **** 0.06
10336 C 127.59958766122062 62.80643935405658 97.0554501992915 C 0.0 **** -0.24
10337 H 128.2105100008377 63.562401783152836 97.54823957729931 H 0.0 **** 0.06
10338 H 128.19357131777255 62.295893757302224 96.29700817460773 H 0.0 **** 0.06
10339 H 126.7411829232494 63.28457057785022 96.58414508573065 H 0.0 **** 0.06
10340 H 127.25154720203466 62.0833574525704 97.79305109638113 H 0.0 **** 0.06
10341 C 197.2602687244163 188.38013735888597 146.662572212668 C 0.0 **** -0.24
10342 H 197.3013760565204 188.3614102085195 147.75184085401827 H 0.0 **** 0.06
10343 H 197.20844611440629 189.4139646482251 146.31937072589344 H 0.0 **** 0.06
10344 H 196.37719325690017 187.83992399782593 146.32314048340595 H 0.0 **** 0.06
10345 H 198.1546695116847 187.90685254880523 146.25768655239926 H 0.0 **** 0.06
10346 C 23.67478183666003 138.71307694320484 38.6929073438497 C 0.0 **** -0.24
10347 H 23.523324076113 137.63399039131684 38.676676741691665 H 0.0 **** 0.06
10348 H 23.408812564494582 139.13112328831224 37.72230017786177 H 0.0 **** 0.06
10349 H 24.72088869010949 138.93050691170285 38.90872287673335 H 0.0 **** 0.06
10350 H 23.044555720893584 139.15565208683321 39.4651696028304 H 0.0 **** 0.06
10351 C 149.2533073205223 109.34367226734173 68.23254544141417 C 0.0 **** -0.24
10352 H 149.57552435550963 108.44101828192652 68.75211608843438 H 0.0 **** 0.06
10353 H 150.01710863440388 109.64080734927177 67.51387863428934 H 0.0 **** 0.06
10354 H 149.1038376892216 110.14480015571041 68.95652860584457 H 0.0 **** 0.06
10355 H 148.31812889040364 109.14732587505858 67.70955017500171 H 0.0 **** 0.06
10356 C 27.78974218178486 70.92646806139476 188.90561329548015 C 0.0 **** -0.24
10357 H 27.815667153628212 70.03206637388837 188.2825433029738 H 0.0 **** 0.06
10358 H 28.643452425872212 70.92218322109517 189.58410586372932 H 0.0 **** 0.06
10359 H 26.86525937763713 70.93819774968154 189.48409291534776 H 0.0 **** 0.06
10360 H 27.833115101884317 71.81179216571132 188.2713115528947 H 0.0 **** 0.06
10361 C 31.99385527736257 154.2297652576835 190.04451674812077 C 0.0 **** -0.24
10362 H 31.763274458379954 153.22314308652938 189.69570738291281 H 0.0 **** 0.06
10363 H 31.211598285490652 154.91603258281424 189.71970935034113 H 0.0 **** 0.06
10364 H 32.95150184725102 154.54684129391882 189.63126195591937 H 0.0 **** 0.06
10365 H 32.05009770783644 154.2326303203326 191.1333180499273 H 0.0 **** 0.06
10366 C 117.96941380608575 93.71322934145348 13.072055596497272 C 0.0 **** -0.24
10367 H 117.56420616516363 93.14577993560499 13.909984368238057 H 0.0 **** 0.06
10368 H 118.69531689293376 94.43817461241838 13.442737108711249 H 0.0 **** 0.06
10369 H 117.16004126379488 94.23639270067372 12.56396619044979 H 0.0 **** 0.06
10370 H 118.45752550082335 93.03289712947696 12.374462785950442 H 0.0 **** 0.06
10371 C 52.701337177106154 7.527105850360073 7.445461446612427 C 0.0 **** -0.24
10372 H 53.28075665245893 8.448851710875005 7.506627971416201 H 0.0 **** 0.06
10373 H 51.65567039918517 7.768533678515325 7.25035554770232 H 0.0 **** 0.06
10374 H 52.78085733126471 6.985488757661386 8.38709147704565 H 0.0 **** 0.06
10375 H 53.08841603660309 6.908808546618502 6.635270054202522 H 0.0 **** 0.06
10376 C 37.40292959372681 147.78612322459963 100.90462932980196 C 0.0 **** -0.24
10377 H 36.372662798851806 147.7225314551245 100.55285507671613 H 0.0 **** 0.06
10378 H 38.07456436815217 147.41568423385385 100.12961359772879 H 0.0 **** 0.06
10379 H 37.51622308492257 147.18168403432927 101.80510562194814 H 0.0 **** 0.06
10380 H 37.645450100812084 148.8244837067421 101.13115968077392 H 0.0 **** 0.06
10381 C 162.19769048820743 105.23339905799025 160.29084960555184 C 0.0 **** -0.24
10382 H 162.57556990214945 104.29334113490367 159.88670239278258 H 0.0 **** 0.06
10383 H 162.00335077605826 105.11704775421904 161.35760082201907 H 0.0 **** 0.06
10384 H 161.27302560461544 105.50278437275699 159.7806319234693 H 0.0 **** 0.06
10385 H 162.9384780448681 106.01728555422767 160.1394844934214 H 0.0 **** 0.06
10386 C 175.27074261595087 137.6734686911756 79.89690753074962 C 0.0 **** -0.24
10387 H 175.83134360664604 138.01942611033147 79.02845161518121 H 0.0 **** 0.06
10388 H 175.793904489466 136.8333636399845 80.35594988678065 H 0.0 **** 0.06
10389 H 174.2759527236785 137.3555497733881 79.58429863644665 H 0.0 **** 0.06
10390 H 175.18310252151554 138.48594210009804 80.61868926386103 H 0.0 **** 0.06
10391 C 66.79805901826465 167.85074687553214 145.40912839725075 C 0.0 **** -0.24
10392 H 67.00265349296659 167.176952685385 146.24148300010359 H 0.0 **** 0.06
10393 H 66.05883632154713 168.5913893761045 145.71534757988047 H 0.0 **** 0.06
10394 H 66.41215839431716 167.27801614189931 144.56546026890567 H 0.0 **** 0.06
10395 H 67.71869919245009 168.3547220912886 145.11538475295674 H 0.0 **** 0.06
10396 C 168.50590007137154 77.13259692120329 162.0054333419647 C 0.0 **** -0.24
10397 H 169.39511948049005 76.52472899511451 161.8402543597434 H 0.0 **** 0.06
10398 H 168.4382034476981 77.39684785173415 163.0612379249771 H 0.0 **** 0.06
10399 H 167.62058373467013 76.56769766777529 161.71441703892202 H 0.0 **** 0.06
10400 H 168.57040340234462 78.04060814473951 161.40631514875258 H 0.0 **** 0.06
10401 C 75.08182890047007 36.60926935324284 173.67003661239022 C 0.0 **** -0.24
10402 H 74.45192484775086 36.25764407038237 172.8528902190563 H 0.0 **** 0.06
10403 H 74.86094887387418 36.03586233923575 174.5707652672166 H 0.0 **** 0.06
10404 H 74.8821134100718 37.665264859787854 173.85349752832263 H 0.0 **** 0.06
10405 H 76.12953371977295 36.478386042767596 173.40256546394522 H 0.0 **** 0.06
10406 C 183.7755542283652 152.54438492821737 22.022524329428336 C 0.0 **** -0.24
10407 H 184.78506005733277 152.32810870347743 22.37489813693537 H 0.0 **** 0.06
10408 H 183.81674639915516 152.8702812349497 20.98341005506836 H 0.0 **** 0.06
10409 H 183.33889479115928 153.3331673085162 22.63477065726869 H 0.0 **** 0.06
10410 H 183.16494262760082 151.64502039156983 22.09817200581574 H 0.0 **** 0.06
10411 C 137.5011839394257 26.423628573904296 111.54344867121478 C 0.0 **** -0.24
10412 H 137.1680858762963 27.097167643470584 112.33266186845884 H 0.0 **** 0.06
10413 H 137.0598392885701 26.728819609891502 110.59372973818603 H 0.0 **** 0.06
10414 H 137.18857975933471 25.406068203665797 111.77825754202368 H 0.0 **** 0.06
10415 H 138.58833854540455 26.461798233214836 111.46789972644652 H 0.0 **** 0.06
10416 C 94.89300954906417 180.33185501215496 28.69296528520502 C 0.0 **** -0.24
10417 H 94.92274039362019 180.50794572787237 29.76845997575346 H 0.0 **** 0.06
10418 H 93.85770702660821 180.33675878568576 28.353260553934092 H 0.0 **** 0.06
10419 H 95.34415827201414 179.36493316503106 28.470700468484992 H 0.0 **** 0.06
10420 H 95.44788212868835 181.118885056299 28.181332767472824 H 0.0 **** 0.06
10421 C 63.243493794570284 38.48391527473548 157.54281036594477 C 0.0 **** -0.24
10422 H 62.32517407660441 38.73257207781107 158.07498926226907 H 0.0 **** 0.06
10423 H 63.355416293922204 37.40031790527982 157.49784603575904 H 0.0 **** 0.06
10424 H 64.0953756638682 38.9160457647468 158.0680457486319 H 0.0 **** 0.06
10425 H 63.196813815042404 38.886807891571266 156.53111169553614 H 0.0 **** 0.06
10426 C 169.83811307566629 143.06184147092432 150.61639043096102 C 0.0 **** -0.24
10427 H 168.9677844784519 142.44396661259498 150.39589446862374 H 0.0 **** 0.06
10428 H 169.82869125439646 143.34044190018852 151.66946387639925 H 0.0 **** 0.06
10429 H 169.8092108067482 143.96106037657555 150.00112406724415 H 0.0 **** 0.06
10430 H 170.74656628572322 142.5007529677122 150.39692256829863 H 0.0 **** 0.06
10431 C 40.45558170211061 155.7436395921861 128.33647267947413 C 0.0 **** -0.24
10432 H 40.07728835454151 156.10814053252483 129.291176756877 H 0.0 **** 0.06
10433 H 40.14696888364631 156.42160017607927 127.54017984657295 H 0.0 **** 0.06
10434 H 40.055239844475835 154.74887696264813 128.1430731671317 H 0.0 **** 0.06
10435 H 41.544501875879746 155.69582934335043 128.37102324976533 H 0.0 **** 0.06
10436 C 142.02058705162844 172.3586759934179 11.90099487913065 C 0.0 **** -0.24
10437 H 141.55373727899644 173.07122851841075 11.220542173879487 H 0.0 **** 0.06
10438 H 141.2542039905285 171.89568992870454 12.522927028521352 H 0.0 **** 0.06
10439 H 142.73850755680172 172.87959312215133 12.534284046471683 H 0.0 **** 0.06
10440 H 142.53507962688303 171.58948549146737 11.324596531949759 H 0.0 **** 0.06
10441 C 111.65836393451104 9.866833770847037 92.2309561243726 C 0.0 **** -0.24
10442 H 112.24757778151076 10.513866541825031 91.58189195447684 H 0.0 **** 0.06
10443 H 111.1973006671223 9.07815956087127 91.63607601524063 H 0.0 **** 0.06
10444 H 110.8812195220224 10.453593471797596 92.7203254017175 H 0.0 **** 0.06
10445 H 112.30637481606743 9.421761479046573 92.98570921328658 H 0.0 **** 0.06
10446 C 128.2875516347958 1.533388876864052 134.07016934551527 C 0.0 **** -0.24
10447 H 128.07290856329934 0.9052017325828388 134.93444241368599 H 0.0 **** 0.06
10448 H 128.0622600073492 2.572067032760515 134.3110636031896 H 0.0 **** 0.06
10449 H 127.67574163641135 1.2138666798526287 133.2273326203783 H 0.0 **** 0.06
10450 H 129.3424706646843 1.4416726292098474 133.80900716939965 H 0.0 **** 0.06
10451 C 119.56918135259986 14.785129509299765 123.70505718641027 C 0.0 **** -0.24
10452 H 120.22768486734364 14.146789131573371 124.2935581220301 H 0.0 **** 0.06
10453 H 118.54670144610645 14.68588116362946 124.06927042903581 H 0.0 **** 0.06
10454 H 119.61404165907325 14.485663874077346 122.65856230283305 H 0.0 **** 0.06
10455 H 119.88978511607502 15.822929041730049 123.801125183263 H 0.0 **** 0.06
10456 C 29.958900377782626 105.34225646030532 146.6304574501985 C 0.0 **** -0.24
10457 H 28.87558638230844 105.35765282128932 146.74274451594454 H 0.0 **** 0.06
10458 H 30.424212774621267 105.22044273113355 147.6090061145818 H 0.0 **** 0.06
10459 H 30.291237809231518 106.28028962016433 146.18395846937597 H 0.0 **** 0.06
10460 H 30.246111333926052 104.51166350854808 145.98537148203076 H 0.0 **** 0.06
10461 C 182.91703589103247 8.513614062499556 34.26339128566502 C 0.0 **** -0.24
10462 H 183.22424541715642 7.891875313621796 33.42261907409147 H 0.0 **** 0.06
10463 H 182.00662416454128 8.103758934681451 34.70385922325323 H 0.0 **** 0.06
10464 H 182.72785033003052 9.528200321939124 33.915109513444804 H 0.0 **** 0.06
10465 H 183.70847038511064 8.52675672702344 35.01305147773269 H 0.0 **** 0.06
10466 C 128.32950151996286 137.2039556664139 175.79994388950456 C 0.0 **** -0.24
10467 H 127.39871594614306 136.82393226618103 175.37902809046392 H 0.0 **** 0.06
10468 H 128.6489795264019 138.08332000337907 175.24044960476908 H 0.0 **** 0.06
10469 H 129.09846749471407 136.43402058872215 175.73767844458706 H 0.0 **** 0.06
10470 H 128.17086089334242 137.4756376817428 176.84430817004022 H 0.0 **** 0.06
10471 C 141.9377456964438 66.4572401094822 33.49510634653819 C 0.0 **** -0.24
10472 H 142.0119055240891 66.43154352445549 34.58205559897095 H 0.0 **** 0.06
10473 H 142.78909661993902 65.93397848989389 33.060515100408 H 0.0 **** 0.06
10474 H 141.93668226491664 67.49398943685992 33.15666667465524 H 0.0 **** 0.06
10475 H 141.0138853434814 65.97215499428216 33.1823426496253 H 0.0 **** 0.06
10476 C 167.11041455695207 71.202759135733 58.17047261489728 C 0.0 **** -0.24
10477 H 167.42230559940793 71.29932063961645 57.13045937524589 H 0.0 **** 0.06
10478 H 166.18230503938366 71.75419438656188 58.32380424510757 H 0.0 **** 0.06
10479 H 167.88595782023626 71.60810944001801 58.82057373513021 H 0.0 **** 0.06
10480 H 166.95240917124408 70.1498391155604 58.40529898807034 H 0.0 **** 0.06
10481 C 124.71097689129402 4.477113579181889 144.0267152791374 C 0.0 **** -0.24
10482 H 125.46865945581425 5.050836153258672 144.55968638940686 H 0.0 **** 0.06
10483 H 125.12986412786239 3.517973856050048 143.72038346264063 H 0.0 **** 0.06
10484 H 124.38967260208668 5.032125968205037 143.1452622248197 H 0.0 **** 0.06
10485 H 123.85618488118132 4.308337401870858 144.68120507354922 H 0.0 **** 0.06
10486 C 154.19604533122325 169.73699705622198 172.11307383517885 C 0.0 **** -0.24
10487 H 154.53723336023458 168.89719566502473 172.71687843488107 H 0.0 **** 0.06
10488 H 153.26288391084432 169.47138539382857 171.61561639396854 H 0.0 **** 0.06
10489 H 154.95158351521243 169.9767203553529 171.3649358312967 H 0.0 **** 0.06
10490 H 154.03143188349662 170.60348381789893 172.7543497580506 H 0.0 **** 0.06
10491 C 21.555375885111175 84.70509081843775 166.92128646358572 C 0.0 **** -0.24
10492 H 21.510097560687598 85.06685939094478 165.89456691399351 H 0.0 **** 0.06
10493 H 22.565294152609994 84.35621804785777 167.13936348916775 H 0.0 **** 0.06
10494 H 20.851292837548215 83.88115020132557 167.04823393569347 H 0.0 **** 0.06
10495 H 21.293701442051542 85.5141119492645 167.6037914036267 H 0.0 **** 0.06
10496 C 63.01176962407163 127.48978554979522 161.15438148807453 C 0.0 **** -0.24
10497 H 64.09011165109689 127.63291373600183 161.22983012490417 H 0.0 **** 0.06
10498 H 62.73721600973255 127.34837716404758 160.10864601401326 H 0.0 **** 0.06
10499 H 62.50173755967597 128.36815663497973 161.54875338461636 H 0.0 **** 0.06
10500 H 62.72067146043253 126.61090169035307 161.72960553321732 H 0.0 **** 0.06
10501 C 81.038435743359 131.28395460295965 166.91846247720122 C 0.0 **** -0.24
10502 H 80.35705014660559 132.0897364484933 166.64681757614082 H 0.0 **** 0.06
10503 H 82.02033890514267 131.7006969246028 167.14820092477373 H 0.0 **** 0.06
10504 H 81.12502503859582 130.5853959026732 166.08667782825137 H 0.0 **** 0.06
10505 H 80.65191727888484 130.76040320783133 167.7933711091868 H 0.0 **** 0.06
10506 C 36.16112676684608 81.13464413910958 8.265844950324038 C 0.0 **** -0.24
10507 H 35.59858996004502 80.3085433354644 8.698234169517207 H 0.0 **** 0.06
10508 H 35.84589008672478 81.28796020193778 7.233781143536248 H 0.0 **** 0.06
10509 H 37.225764978582774 80.9009248285737 8.289157084030109 H 0.0 **** 0.06
10510 H 35.976410700524426 82.04167902883628 8.841888679588322 H 0.0 **** 0.06
10511 C 136.43620976740033 147.14892907441123 24.81569078134885 C 0.0 **** -0.24
10512 H 136.78548176997833 146.14390928050784 24.5802338823176 H 0.0 **** 0.06
10513 H 137.29286885219528 147.80550340949333 24.962976238345107 H 0.0 **** 0.06
10514 H 135.8379308207775 147.12111887481922 25.726011363268668 H 0.0 **** 0.06
10515 H 135.8277757082223 147.52323281234442 23.991649874315158 H 0.0 **** 0.06
10516 C 180.85593911806006 26.694271030985874 170.9258307764096 C 0.0 **** -0.24
10517 H 181.34024617284686 26.691676120849422 171.90324914357228 H 0.0 **** 0.06
10518 H 181.5508355508755 27.075219527148306 170.17750406235734 H 0.0 **** 0.06
10519 H 179.97299542336467 27.331175356035544 170.96062961690893 H 0.0 **** 0.06
10520 H 180.56100856633088 25.67727635323257 170.6648068208542 H 0.0 **** 0.06
10521 C 175.40115314375245 5.984522509471901 105.37971193153186 C 0.0 **** -0.24
10522 H 175.06131764638468 4.96071492929849 105.22092410852287 H 0.0 **** 0.06
10523 H 176.07350636362764 6.014612914152906 106.23807923834863 H 0.0 **** 0.06
10524 H 174.54103285875775 6.626482188863804 105.56957384129976 H 0.0 **** 0.06
10525 H 175.9275542926805 6.33459031805063 104.49265837750391 H 0.0 **** 0.06
10526 C 105.70241010072937 136.78698261032673 93.18166543544993 C 0.0 **** -0.24
10527 H 106.71786033942686 136.84405848313042 93.57342790798785 H 0.0 **** 0.06
10528 H 105.52478089070769 137.62770917874758 92.51084027996524 H 0.0 **** 0.06
10529 H 104.99220443693773 136.82314469734916 94.0069434930844 H 0.0 **** 0.06
10530 H 105.57690886858609 135.8528261798641 92.63422787174528 H 0.0 **** 0.06
10531 C 62.99743014485958 151.87173550773772 80.01028105465127 C 0.0 **** -0.24
10532 H 63.90133394462377 151.524162713186 79.51090370567744 H 0.0 **** 0.06
10533 H 63.22328524849715 152.10142283837473 81.05199786010533 H 0.0 **** 0.06
10534 H 62.23651235095235 151.09237012405484 79.96722997602316 H 0.0 **** 0.06
10535 H 62.62939084185727 152.76789009397535 79.51206756387708 H 0.0 **** 0.06
10536 C 149.2536367672424 175.78923018608745 151.40011686958812 C 0.0 **** -0.24
10537 H 149.09150626957242 176.866844030889 151.38209520556234 H 0.0 **** 0.06
10538 H 148.37195976483284 175.2831120378319 151.00738699030987 H 0.0 **** 0.06
10539 H 149.43153318786338 175.46618360336078 152.42608444332188 H 0.0 **** 0.06
10540 H 150.1194888875829 175.54199460183378 150.7861353166453 H 0.0 **** 0.06
10541 C 28.818283214147357 28.159125743192263 179.76060358041894 C 0.0 **** -0.24
10542 H 28.11648949813565 27.32949211986994 179.6838814644131 H 0.0 **** 0.06
10543 H 28.78586727516648 28.57028845860266 180.769966314197 H 0.0 **** 0.06
10544 H 28.545371182574 28.934093764007557 179.04419987010982 H 0.0 **** 0.06
10545 H 29.826246141970046 27.803752899688448 179.544535120867 H 0.0 **** 0.06
10546 C 57.43750500237053 103.23037143125362 89.19624674173514 C 0.0 **** -0.24
10547 H 58.11712868582947 104.05898077441731 88.9997299078808 H 0.0 **** 0.06
10548 H 57.22400023803681 103.18048007260722 90.26430398073637 H 0.0 **** 0.06
10549 H 57.89879760289543 102.29724484338254 88.87347812297634 H 0.0 **** 0.06
10550 H 56.50790866173037 103.38509200647684 88.64783459249543 H 0.0 **** 0.06
10551 C 154.81629409386662 68.1793561946987 119.64306745158078 C 0.0 **** -0.24
10552 H 155.72865073670283 68.3757946760474 119.07997779568026 H 0.0 **** 0.06
10553 H 154.24804628094364 69.1038729229532 119.74738395853569 H 0.0 **** 0.06
10554 H 155.0738894720699 67.79646289453558 120.63012773633855 H 0.0 **** 0.06
10555 H 154.2150545054767 67.44080137927898 119.11264928777985 H 0.0 **** 0.06
10556 C 71.31379954986755 182.21725491560767 23.834359977332042 C 0.0 **** -0.24
10557 H 70.28809472566053 181.94554059118596 23.5832192984073 H 0.0 **** 0.06
10558 H 71.94140315791151 181.32645843125994 23.80950006463013 H 0.0 **** 0.06
10559 H 71.33941141268616 182.65328827387327 24.83250105098466 H 0.0 **** 0.06
10560 H 71.68459683848414 182.9432478767667 23.110515876589147 H 0.0 **** 0.06
10561 C 19.831301770910386 51.630729984148445 198.89668923330044 C 0.0 **** -0.24
10562 H 19.318556184218437 52.555685844503046 199.15940445632089 H 0.0 **** 0.06
10563 H 20.57100752432558 51.83302741708391 198.12087619538235 H 0.0 **** 0.06
10564 H 19.106552676507192 50.905335563781534 198.5279110432985 H 0.0 **** 0.06
10565 H 20.330457284410784 51.228614290378175 199.77830730510493 H 0.0 **** 0.06
10566 C 13.134208008497438 67.42652421554942 36.23920472384816 C 0.0 **** -0.24
10567 H 12.111924354525705 67.29662052517455 35.88624607166139 H 0.0 **** 0.06
10568 H 13.80911204312514 67.48621759747087 35.38537047394642 H 0.0 **** 0.06
10569 H 13.413447100816242 66.57799701378087 36.86463723173348 H 0.0 **** 0.06
10570 H 13.204327753469585 68.3455423850495 36.82256614269406 H 0.0 **** 0.06
10571 C 143.83131628568026 138.6554571758761 152.82155084287209 C 0.0 **** -0.24
10572 H 144.42581450642453 139.56627701048978 152.88474699174407 H 0.0 **** 0.06
10573 H 142.8502091451059 138.890144727447 152.40905453051096 H 0.0 **** 0.06
10574 H 143.71378827863742 138.22803074105266 153.8177523839605 H 0.0 **** 0.06
10575 H 144.3354532125533 137.937376224515 152.17464946527275 H 0.0 **** 0.06
10576 C 102.48164813922841 176.09394733544207 176.54000819674113 C 0.0 **** -0.24
10577 H 101.67257106903364 175.57998998221856 176.020368099541 H 0.0 **** 0.06
10578 H 102.06385539440922 176.83346123308846 177.22301265946766 H 0.0 **** 0.06
10579 H 103.12122386156864 176.5919664122948 175.81104003223066 H 0.0 **** 0.06
10580 H 103.06934717347636 175.36899156730112 177.10362923334614 H 0.0 **** 0.06
10581 C 178.51339098715331 106.3011179174313 21.26528195070989 C 0.0 **** -0.24
10582 H 178.1101804843008 107.1925142496649 20.78519181137409 H 0.0 **** 0.06
10583 H 177.91088096145515 106.05502726790607 22.140096079693308 H 0.0 **** 0.06
10584 H 179.54173898633212 106.48921756518192 21.573686871409166 H 0.0 **** 0.06
10585 H 178.49110927243933 105.46859183380656 20.56248075894507 H 0.0 **** 0.06
10586 C 154.9534680045883 3.2724851064163545 197.20107124566152 C 0.0 **** -0.24
10587 H 155.52282649845907 2.625881186490176 196.53251684778365 H 0.0 **** 0.06
10588 H 153.88843477206316 3.0764728475293737 197.07492013888236 H 0.0 **** 0.06
10589 H 155.1625225436105 4.31525288595833 196.96202680974486 H 0.0 **** 0.06
10590 H 155.2413395234647 3.0712404650486747 198.23213052117285 H 0.0 **** 0.06
10591 C 25.0032703620616 56.41507444882565 2.635820365234842 C 0.0 **** -0.24
10592 H 24.174685011387623 55.914721143146195 2.132976846547052 H 0.0 **** 0.06
10593 H 25.622143631512017 56.92464410217727 1.897728695546185 H 0.0 **** 0.06
10594 H 25.603475079099155 55.6768803735163 3.16837881472906 H 0.0 **** 0.06
10595 H 24.609827707775864 57.14397020210966 3.345333276370681 H 0.0 **** 0.06
10596 C 89.29976437321139 74.79764288513047 5.783746301351329 C 0.0 **** -0.24
10597 H 89.34029723649971 73.8635574730854 6.343847370221198 H 0.0 **** 0.06
10598 H 89.36923188153833 74.58471898927746 4.7162668419763065 H 0.0 **** 0.06
10599 H 90.13247885398962 75.43561467730586 6.082325101617755 H 0.0 **** 0.06
10600 H 88.35927792172436 75.30668312673873 5.992360607877913 H 0.0 **** 0.06
10601 C 94.64835339602956 169.56067760604316 53.34984821986194 C 0.0 **** -0.24
10602 H 93.95060781542566 169.13534743649592 52.627698610107785 H 0.0 **** 0.06
10603 H 94.13127304617456 169.73366997748866 54.29517477450261 H 0.0 **** 0.06
10604 H 95.03398585928142 170.50587068016486 52.96781113105233 H 0.0 **** 0.06
10605 H 95.47409003229222 168.86761849906935 53.5088034014877 H 0.0 **** 0.06
10606 C 129.8848205051516 158.25322872606395 21.998846501079868 C 0.0 **** -0.24
10607 H 130.15679089572453 157.67025198579609 21.11870167347439 H 0.0 **** 0.06
10608 H 129.39351196441712 157.60583132810024 22.72534716436394 H 0.0 **** 0.06
10609 H 129.20522481424058 159.05444732200397 21.707659016234857 H 0.0 **** 0.06
10610 H 130.78326604493145 158.68225313373503 22.44281537149385 H 0.0 **** 0.06
10611 C 136.93310368019104 27.06110224590617 183.01338511930265 C 0.0 **** -0.24
10612 H 137.86264807514988 27.626393436071453 183.08395268217143 H 0.0 **** 0.06
10613 H 137.02823295261442 26.303496416901282 182.23549919439918 H 0.0 **** 0.06
10614 H 136.11453023872411 27.73682667531662 182.76661055190132 H 0.0 **** 0.06
10615 H 136.72927673737075 26.577677521969406 183.9683902387765 H 0.0 **** 0.06
10616 C 148.89921824207883 184.92376604665102 140.96261249349052 C 0.0 **** -0.24
10617 H 148.1976505760113 185.38152028416505 140.26564797704094 H 0.0 **** 0.06
10618 H 149.85633949998973 184.7672974678996 140.46334182411013 H 0.0 **** 0.06
10619 H 148.50445669238832 183.96532911865077 141.29882320528043 H 0.0 **** 0.06
10620 H 149.04003903528402 185.58016995210073 141.82095163694663 H 0.0 **** 0.06
10621 C 132.56345534095647 25.851623961759287 103.88564047641773 C 0.0 **** -0.24
10622 H 133.04197026996152 25.996889761442617 102.9165274708837 H 0.0 **** 0.06
10623 H 133.17670438263633 25.188068709085584 104.49624570567539 H 0.0 **** 0.06
10624 H 131.57862651830555 25.408419561172693 103.7418882329203 H 0.0 **** 0.06
10625 H 132.45959235930914 26.814550967954133 104.38631677591923 H 0.0 **** 0.06
10626 C 197.18542802902203 146.5656692234372 181.18885452624022 C 0.0 **** -0.24
10627 H 197.26162539202596 147.0729551495569 180.22632937553664 H 0.0 **** 0.06
10628 H 197.7703542715997 147.108019349681 181.9322335216204 H 0.0 **** 0.06
10629 H 197.5688501086466 145.54970324162838 181.0955469126731 H 0.0 **** 0.06
10630 H 196.1411899930829 146.53315507669365 181.50055381828884 H 0.0 **** 0.06
10631 C 70.94952524142508 154.46668101242176 147.1695090689472 C 0.0 **** -0.24
10632 H 71.69783246466558 155.16778816352274 146.8008402064688 H 0.0 **** 0.06
10633 H 71.43885816844178 153.6866864278831 147.7531497332381 H 0.0 **** 0.06
10634 H 70.42690971319831 154.0155455705932 146.32595616134998 H 0.0 **** 0.06
10635 H 70.23435673102273 154.996655431806 147.79949622999317 H 0.0 **** 0.06
10636 C 35.50368543711588 196.45561506754348 83.56440127076544 C 0.0 **** -0.24
10637 H 34.443747180913704 196.20842252717074 83.50097072570486 H 0.0 **** 0.06
10638 H 36.08690674371543 195.53676097772134 83.61891490716212 H 0.0 **** 0.06
10639 H 35.68342154535098 197.0541471590048 84.45748354585288 H 0.0 **** 0.06
10640 H 35.79795774971322 197.02174573912706 82.68155841006856 H 0.0 **** 0.06
10641 C 19.639989535191205 29.534062123256575 93.90648006320228 C 0.0 **** -0.24
10642 H 18.900665491883075 28.818348934356663 94.26567536866256 H 0.0 **** 0.06
10643 H 20.633654390181533 29.08945880005257 93.96253115640141 H 0.0 **** 0.06
10644 H 19.6064741113628 30.43069255100039 94.52467279684316 H 0.0 **** 0.06
10645 H 19.418060223235415 29.79738798542698 92.87223369191338 H 0.0 **** 0.06
10646 C 45.80040528856381 110.56043852490194 193.5115884515797 C 0.0 **** -0.24
10647 H 46.178839990156234 110.99277935061639 194.4377354510217 H 0.0 **** 0.06
10648 H 45.471840515632834 109.53826873559075 193.6961115307417 H 0.0 **** 0.06
10649 H 46.59172677739315 110.55902176781129 192.7621733661726 H 0.0 **** 0.06
10650 H 44.96032600363526 111.15339772370635 193.15124299782087 H 0.0 **** 0.06
10651 C 90.82484750874914 0.3205707204389512 186.46251212968872 C 0.0 **** -0.24
10652 H 90.47728465660089 0.8363509344129341 185.5676280549802 H 0.0 **** 0.06
10653 H 91.31275625541457 1.034277375389678 187.12633706730364 H 0.0 **** 0.06
10654 H 91.53275160781607 -0.458244390370254 186.18030568900878 H 0.0 **** 0.06
10655 H 89.97378183148561 -0.12971803302548324 186.97481571608637 H 0.0 **** 0.06
10656 C 9.456997933009987 116.83316035356472 160.2472979188401 C 0.0 **** -0.24
10657 H 10.22293479962157 116.26754877564508 160.77868568678468 H 0.0 **** 0.06
10658 H 9.548195699056564 117.89041908821167 160.49673252500824 H 0.0 **** 0.06
10659 H 8.47038606501669 116.47437860138962 160.54198992305663 H 0.0 **** 0.06
10660 H 9.58590933302564 116.70044494771923 159.17369597802542 H 0.0 **** 0.06
10661 C 39.5787963099623 51.48119182103295 187.26992491074483 C 0.0 **** -0.24
10662 H 40.62241929933853 51.226275453563744 187.08855688515686 H 0.0 **** 0.06
10663 H 39.27211040201651 52.268509810711464 186.58048612145407 H 0.0 **** 0.06
10664 H 39.46401903568771 51.831605853551864 188.29597163441412 H 0.0 **** 0.06
10665 H 38.956658318771545 50.59918674541599 187.11527024308813 H 0.0 **** 0.06
10666 C 24.50145414593817 148.84681851982094 198.74364436945257 C 0.0 **** -0.24
10667 H 24.0121641915849 149.50692341563848 198.02787308210515 H 0.0 **** 0.06
10668 H 24.576546277121054 149.34974764647268 199.70881958244632 H 0.0 **** 0.06
10669 H 25.500164563734586 148.5975887520509 198.3849541010891 H 0.0 **** 0.06
10670 H 23.916021107667177 147.933883641144 198.85477382825724 H 0.0 **** 0.06
10671 C 154.73230732189324 68.09909057293783 26.818010030575664 C 0.0 **** -0.24
10672 H 155.81633268711983 68.08281852054557 26.700694504764954 H 0.0 **** 0.06
10673 H 154.27306585626172 68.4723457581768 25.903191193894855 H 0.0 **** 0.06
10674 H 154.4667310490285 68.75018750703265 27.650572158926806 H 0.0 **** 0.06
10675 H 154.37452616426174 67.08933803857929 27.019623889852966 H 0.0 **** 0.06
10676 C 59.135163270891354 18.22827676441119 87.54421819542881 C 0.0 **** -0.24
10677 H 58.081192471782714 18.496456241803685 87.61707424832835 H 0.0 **** 0.06
10678 H 59.68996798810221 18.718690342692938 88.3447498645707 H 0.0 **** 0.06
10679 H 59.52645385590806 18.551624047955997 86.5807043918742 H 0.0 **** 0.06
10680 H 59.24271111603031 17.148177663114637 87.63669005651371 H 0.0 **** 0.06
10681 C 165.7528662497433 187.40857774320617 85.46950351336625 C 0.0 **** -0.24
10682 H 165.76558515195518 186.3199476164983 85.4062391115429 H 0.0 **** 0.06
10683 H 165.07573670813503 187.71803258549215 86.26603912493368 H 0.0 **** 0.06
10684 H 165.4120060155846 187.82411365980485 84.52085452664738 H 0.0 **** 0.06
10685 H 166.75804785020352 187.77142923713126 85.68549063970875 H 0.0 **** 0.06
10686 C 100.75590796112462 98.85941255472147 143.3270565677076 C 0.0 **** -0.24
10687 H 100.27121562663407 98.54110810649445 144.25049542356862 H 0.0 **** 0.06
10688 H 100.17047941800831 99.65253919104106 142.86412331294446 H 0.0 **** 0.06
10689 H 100.82642158576527 98.01285948428085 142.6436515470907 H 0.0 **** 0.06
10690 H 101.75691894012704 99.22833081361631 143.55198552046363 H 0.0 **** 0.06
10691 C 32.99488097902625 166.6147325471713 99.1193013504656 C 0.0 **** -0.24
10692 H 33.69480267628978 166.36142635348807 99.91646902614926 H 0.0 **** 0.06
10693 H 33.41816165081852 167.4079155000643 98.50336227110861 H 0.0 **** 0.06
10694 H 32.05560368141012 166.95385614968842 99.55526121737776 H 0.0 **** 0.06
10695 H 32.81206356990202 165.73394876523054 98.50337488018877 H 0.0 **** 0.06
10696 C 40.967870645522964 151.0504875738418 50.5610822430109 C 0.0 **** -0.24
10697 H 40.095308886707585 150.91246944003478 51.20038629914353 H 0.0 **** 0.06
10698 H 41.62541173413672 150.18650351118328 50.65434491587894 H 0.0 **** 0.06
10699 H 41.503648112494375 151.94925468084222 50.86725194418324 H 0.0 **** 0.06
10700 H 40.64626648368164 151.15391296511052 49.525386532132075 H 0.0 **** 0.06
10701 C 129.08466414757652 188.10562929252228 75.6721480996951 C 0.0 **** -0.24
10702 H 128.36733144443986 187.31179548373677 75.87649174316124 H 0.0 **** 0.06
10703 H 130.02765448484638 187.88126577556136 76.17184995449202 H 0.0 **** 0.06
10704 H 128.69343352005183 189.05296473211467 76.04315462845592 H 0.0 **** 0.06
10705 H 129.2507169439706 188.17736237916836 74.59699205152918 H 0.0 **** 0.06
10706 C 97.03121053390805 171.0499169108457 123.26432740441379 C 0.0 **** -0.24
10707 H 96.10221131207038 170.47921500463445 123.28110483813498 H 0.0 **** 0.06
10708 H 97.87523260090632 170.37470111991115 123.40537019992854 H 0.0 **** 0.06
10709 H 97.01712479942614 171.78803498878887 124.06690699554275 H 0.0 **** 0.06
10710 H 97.12729322399878 171.55792668530933 122.30496414735131 H 0.0 **** 0.06
10711 C 130.1099099696646 180.3662347327197 170.48291412962726 C 0.0 **** -0.24
10712 H 130.27756605439177 181.25340270493115 171.09351637879783 H 0.0 **** 0.06
10713 H 130.06808199653116 179.4860909289771 171.1259817990293 H 0.0 **** 0.06
10714 H 130.92732201370876 180.25717489464512 169.77108047253407 H 0.0 **** 0.06
10715 H 129.16929382294776 180.46898615226974 169.9441766819022 H 0.0 **** 0.06
10716 C 161.75951496924927 121.43672576826643 93.8746457813235 C 0.0 **** -0.24
10717 H 161.25243599817645 121.66432987351791 94.81304441807256 H 0.0 **** 0.06
10718 H 161.65796176176124 120.37410331393096 93.65584877105627 H 0.0 **** 0.06
10719 H 162.81560563706108 121.69190528893716 93.96257528441603 H 0.0 **** 0.06
10720 H 161.31027321964729 122.01894016209525 93.06938994823784 H 0.0 **** 0.06
10721 C 60.91809452086045 75.05806352941134 13.398307423227358 C 0.0 **** -0.24
10722 H 61.216471103038046 75.69633218940064 14.230107410987806 H 0.0 **** 0.06
10723 H 60.80604627179733 74.0322771629627 13.749263545283462 H 0.0 **** 0.06
10724 H 61.68035924307705 75.09558782167797 12.620323429361456 H 0.0 **** 0.06
10725 H 59.96851291344768 75.41005473043936 12.993357204425209 H 0.0 **** 0.06
10726 C 97.88943136010158 69.96466890979758 77.78311999362073 C 0.0 **** -0.24
10727 H 98.13698020651057 69.77225585255201 76.73966637956569 H 0.0 **** 0.06
10728 H 98.80641811958594 70.03313082173912 78.36805411228443 H 0.0 **** 0.06
10729 H 97.27328797395188 69.15053027310591 78.16604728644123 H 0.0 **** 0.06
10730 H 97.33860885517058 70.90252065355139 77.85890502099232 H 0.0 **** 0.06
10731 C 178.07418053943636 145.77557050230138 49.9484351652236 C 0.0 **** -0.24
10732 H 177.80927587966886 146.825352727433 49.8259832803233 H 0.0 **** 0.06
10733 H 177.74850660851064 145.21351557410122 49.0731349703683 H 0.0 **** 0.06
10734 H 177.5854154349604 145.37959783534754 50.838308184411744 H 0.0 **** 0.06
10735 H 179.15545593383297 145.68469024492526 50.05754065978803 H 0.0 **** 0.06
10736 C 180.55150552135893 99.59730467854956 24.563229076624168 C 0.0 **** -0.24
10737 H 181.22151823762653 98.78640434954195 24.279499849186436 H 0.0 **** 0.06
10738 H 181.12006921042894 100.37985099438117 25.06555096002249 H 0.0 **** 0.06
10739 H 179.7850677856064 99.21534377481868 25.23789251567304 H 0.0 **** 0.06
10740 H 180.07854519987913 100.00749602719202 23.671117386386328 H 0.0 **** 0.06
10741 C 121.86018661849684 198.58544443839554 139.22974930013922 C 0.0 **** -0.24
10742 H 121.24011762837137 198.5197983124015 138.3353954953736 H 0.0 **** 0.06
10743 H 121.25696452910128 198.94490182430255 140.0636864622386 H 0.0 **** 0.06
10744 H 122.6840429529289 199.27662519981845 139.05159885846226 H 0.0 **** 0.06
10745 H 122.25859002835654 197.59850440010095 139.46793997292986 H 0.0 **** 0.06
10746 C 36.652850805017394 150.4716588772215 70.32335883740075 C 0.0 **** -0.24
10747 H 37.04577887957643 150.25604913798273 71.3167548523654 H 0.0 **** 0.06
10748 H 35.5633323797467 150.49332018230615 70.36027885992712 H 0.0 **** 0.06
10749 H 36.97714208543037 149.6957740168365 69.62897813657656 H 0.0 **** 0.06
10750 H 37.025334586061106 151.43868251665856 69.98715537187971 H 0.0 **** 0.06
10751 C 125.07267047356228 66.7423379416626 21.310094380601498 C 0.0 **** -0.24
10752 H 124.03372681326897 66.78969527446094 20.984312200072395 H 0.0 **** 0.06
10753 H 125.12849407078272 66.94876932798209 22.37883311733995 H 0.0 **** 0.06
10754 H 125.65759559053265 67.48295291445574 20.764545340084055 H 0.0 **** 0.06
10755 H 125.47078923725311 65.74707755612202 21.11062279602794 H 0.0 **** 0.06
10756 C 104.81275462602969 20.29080399409378 77.06550374613643 C 0.0 **** -0.24
10757 H 105.87244443482848 20.124801208553436 76.8719391219772 H 0.0 **** 0.06
10758 H 104.58327784799917 20.011693732572354 78.09375689954834 H 0.0 **** 0.06
10759 H 104.21972196248998 19.683658028518778 76.38280565634992 H 0.0 **** 0.06
10760 H 104.57637619911031 21.34452634122664 76.91397764355528 H 0.0 **** 0.06
10761 C 19.378396640017073 153.37337311873182 128.89870502398026 C 0.0 **** -0.24
10762 H 18.568910727481153 154.0973895175972 128.80470237364818 H 0.0 **** 0.06
10763 H 19.625296937999096 152.9751826404702 127.91451791320173 H 0.0 **** 0.06
10764 H 19.064537775289665 152.55964152126143 129.55200447209472 H 0.0 **** 0.06
10765 H 20.255361257680065 153.86186747552438 129.32421415328628 H 0.0 **** 0.06
10766 C 83.85059380899645 190.56772207560476 9.518947125343516 C 0.0 **** -0.24
10767 H 84.78604596411 190.28156475422702 9.037854679100462 H 0.0 **** 0.06
10768 H 84.04127152199385 190.8155140533155 10.563968591727843 H 0.0 **** 0.06
10769 H 83.14628403559783 189.7374862043361 9.464736172666505 H 0.0 **** 0.06
10770 H 83.43133165272056 191.43451810949063 9.009674578363303 H 0.0 **** 0.06
10771 C 38.215608526616435 175.90040315493212 168.5477579758573 C 0.0 **** -0.24
10772 H 38.28667669610941 176.78753710968184 167.91846285967824 H 0.0 **** 0.06
10773 H 37.304840743754255 175.35309546881257 168.30341592323205 H 0.0 **** 0.06
10774 H 38.18887509941098 176.2007599750854 169.59586618407647 H 0.0 **** 0.06
10775 H 39.08149258908006 175.26188348312215 168.37467681956343 H 0.0 **** 0.06
10776 C 47.45465235348897 14.179849336885354 0.8790461525597877 C 0.0 **** -0.24
10777 H 47.46217038705156 13.449984778711041 0.06879439329070891 H 0.0 **** 0.06
10778 H 47.037646073904625 13.721684575494805 1.7766421231895677 H 0.0 **** 0.06
10779 H 46.843607514639146 15.036050105461015 0.5905532318041722 H 0.0 **** 0.06
10780 H 48.47269040508756 14.511191777887689 1.078601531920377 H 0.0 **** 0.06
10781 C 6.612241579037033 131.36495127289942 143.60518334064835 C 0.0 **** -0.24
10782 H 6.935191810177315 130.50057001977882 143.024099094093 H 0.0 **** 0.06
10783 H 6.848810288228208 132.27871030403185 143.05936800830236 H 0.0 **** 0.06
10784 H 7.128177432637472 131.37046019413467 144.56573659058424 H 0.0 **** 0.06
10785 H 5.536221800118199 131.30902788048223 143.77075114378295 H 0.0 **** 0.06
10786 C 127.68918596657483 101.24262561941987 163.8220409130842 C 0.0 **** -0.24
10787 H 127.5367982420467 101.28704648491504 162.74416920147448 H 0.0 **** 0.06
10788 H 127.42000529573562 100.25123889998437 164.18606950435935 H 0.0 **** 0.06
10789 H 127.06359306976478 101.9914383113398 164.3089143920196 H 0.0 **** 0.06
10790 H 128.736626243895 101.4416845923277 164.04932945187002 H 0.0 **** 0.06
10791 C 96.267049665108 108.43841498263006 51.571122850317124 C 0.0 **** -0.24
10792 H 97.33107693751566 108.47764166122653 51.801656766000306 H 0.0 **** 0.06
10793 H 95.80509472538043 109.39267624611006 51.82530933378237 H 0.0 **** 0.06
10794 H 95.79903075454843 107.64253878672378 52.149271648233565 H 0.0 **** 0.06
10795 H 96.133021213321 108.2424564550094 50.50712833935064 H 0.0 **** 0.06
10796 C 71.78288635934075 147.58755782943743 169.20729267886963 C 0.0 **** -0.24
10797 H 72.74652572695248 147.08876750149963 169.3106709154187 H 0.0 **** 0.06
10798 H 71.66210217327455 147.93341161168058 168.18026198636193 H 0.0 **** 0.06
10799 H 71.73939294487076 148.4382995056071 169.8865471103546 H 0.0 **** 0.06
10800 H 70.98422871803757 146.88651505831393 169.4515419494819 H 0.0 **** 0.06
10801 C 139.11346695389602 107.09813575510773 135.49053016453317 C 0.0 **** -0.24
10802 H 138.80262241178593 106.16629874246894 135.96272094236332 H 0.0 **** 0.06
10803 H 138.84483539272082 107.93778950034843 136.13189851745292 H 0.0 **** 0.06
10804 H 138.61390661579475 107.20232016851133 134.52685761637994 H 0.0 **** 0.06
10805 H 140.1934850570724 107.08702681519185 135.34015332521005 H 0.0 **** 0.06
10806 C 134.69590741824234 15.697031989679004 131.25854728114385 C 0.0 **** -0.24
10807 H 134.65609471228095 16.58964948001838 131.8830411977989 H 0.0 **** 0.06
10808 H 135.33046407380613 15.88668610700131 130.3931653791258 H 0.0 **** 0.06
10809 H 133.689756222014 15.444099269336135 130.9233286893599 H 0.0 **** 0.06
10810 H 135.1059012590745 14.867727135612398 131.8346880494153 H 0.0 **** 0.06
10811 C 83.82208046960625 45.51511032786024 24.131971678700737 C 0.0 **** -0.24
10812 H 83.74952786608708 45.32325101015468 25.20253685935441 H 0.0 **** 0.06
10813 H 84.80423146846977 45.92700322910241 23.901699408621354 H 0.0 **** 0.06
10814 H 83.0501126303028 46.22678476471856 23.837647276643082 H 0.0 **** 0.06
10815 H 83.68180770807703 44.58235989957299 23.585037597558824 H 0.0 **** 0.06
10816 C 66.96856628906261 149.29272514984353 167.0903792565772 C 0.0 **** -0.24
10817 H 67.28565140126463 148.55556253205793 166.35253916925512 H 0.0 **** 0.06
10818 H 65.89951576385839 149.1820630739119 167.27789887926684 H 0.0 **** 0.06
10819 H 67.16924335306261 150.29451107255667 166.7113365798505 H 0.0 **** 0.06
10820 H 67.5181208509911 149.13733917057738 168.01876046171066 H 0.0 **** 0.06
10821 C 153.87911918500564 100.8966605592642 186.70354846096416 C 0.0 **** -0.24
10822 H 152.8441335171669 100.6501926096499 186.9417771584868 H 0.0 **** 0.06
10823 H 154.3347843961974 100.0661588105786 186.1640767291978 H 0.0 **** 0.06
10824 H 154.430782310516 101.07787903330322 187.62643651489284 H 0.0 **** 0.06
10825 H 153.90482722264173 101.79151430290551 186.0830845056666 H 0.0 **** 0.06
10826 C 149.79726295141515 141.89346192809944 76.1668991525952 C 0.0 **** -0.24
10827 H 149.9854935690022 140.82087033833852 76.1439391450509 H 0.0 **** 0.06
10828 H 150.2002692127026 142.35352740397076 75.26460574361495 H 0.0 **** 0.06
10829 H 150.27896882592546 142.327794416948 77.04311683632888 H 0.0 **** 0.06
10830 H 148.72314632283755 142.0723393094686 76.21700938953505 H 0.0 **** 0.06
10831 C 53.15358625231107 44.08685877773165 189.9719529152678 C 0.0 **** -0.24
10832 H 54.14779945194849 44.48576867663337 190.17155169782922 H 0.0 **** 0.06
10833 H 53.00121526694156 44.010154928119704 188.89551142654173 H 0.0 **** 0.06
10834 H 52.40291811033319 44.751076505992614 190.39927810170298 H 0.0 **** 0.06
10835 H 53.062374687033696 43.098349171232 190.42362638175507 H 0.0 **** 0.06
10836 C 128.35347980426275 154.54878894337486 187.19711797093686 C 0.0 **** -0.24
10837 H 128.20318612106314 154.54133792946007 188.27655160364947 H 0.0 **** 0.06
10838 H 127.38794664498585 154.6227230795112 186.69600405171218 H 0.0 **** 0.06
10839 H 128.85054678544293 153.6272143424176 186.89397550101936 H 0.0 **** 0.06
10840 H 128.97249672134149 155.40287506191186 186.92290156888785 H 0.0 **** 0.06
10841 C 180.78608895402158 79.35389899241443 148.0546227943525 C 0.0 **** -0.24
10842 H 180.75013338899797 80.44265660823868 148.01870997034615 H 0.0 **** 0.06
10843 H 181.0534260142284 79.03204440552952 149.06080030823128 H 0.0 **** 0.06
10844 H 181.53139987836238 78.99121519570588 147.34626145494894 H 0.0 **** 0.06
10845 H 179.8076084682081 78.95051839670339 147.79167081820435 H 0.0 **** 0.06
10846 C 24.001370326714294 18.162120912859578 97.15114453238289 C 0.0 **** -0.24
10847 H 23.544256918951817 19.07043479269555 96.75858254969978 H 0.0 **** 0.06
10848 H 24.338138334685198 18.33746399993285 98.1738262202764 H 0.0 **** 0.06
10849 H 24.853373904845 17.88613013343658 96.52993066229874 H 0.0 **** 0.06
10850 H 23.268514398370826 17.35450752619819 97.14298879740534 H 0.0 **** 0.06
10851 C 72.341043279333 53.73300770028693 130.9866312759781 C 0.0 **** -0.24
10852 H 72.9488759905156 54.249709901061465 130.2436770915271 H 0.0 **** 0.06
10853 H 72.16358323728196 54.3948719033954 131.83473233612497 H 0.0 **** 0.06
10854 H 72.86513331802215 52.83902573574527 131.325280904062 H 0.0 **** 0.06
10855 H 71.38732471396278 53.44834604802982 130.5412726086253 H 0.0 **** 0.06
10856 C 69.05934741355597 34.52204462946429 157.0828451046549 C 0.0 **** -0.24
10857 H 69.45802161539422 33.76741024887514 157.7603770234256 H 0.0 **** 0.06
10858 H 68.89932509604259 34.080289062109046 156.09973903683772 H 0.0 **** 0.06
10859 H 69.76799644589735 35.346418193773985 157.00011984292703 H 0.0 **** 0.06
10860 H 68.11209207328409 34.896095868154845 157.47250738644087 H 0.0 **** 0.06
10861 C 183.5443209649666 136.167835902749 126.88201231820153 C 0.0 **** -0.24
10862 H 184.60105366953934 136.4274290360982 126.83377289723 H 0.0 **** 0.06
10863 H 183.30050929576913 135.4870855329682 126.06603345880899 H 0.0 **** 0.06
10864 H 182.9428535175268 137.073031102865 126.79195529993171 H 0.0 **** 0.06
10865 H 183.33167242138754 135.68305790299212 127.83527544467984 H 0.0 **** 0.06
10866 C 189.97229445450284 187.36419630723682 137.91325481262902 C 0.0 **** -0.24
10867 H 190.09812165552208 186.32396859316606 137.61207627459035 H 0.0 **** 0.06
10868 H 190.80829276672787 187.66191339870286 138.5460731398483 H 0.0 **** 0.06
10869 H 189.04035802953257 187.47026583557434 138.46873968371682 H 0.0 **** 0.06
10870 H 189.94215160717607 187.9971122666337 137.02684381299818 H 0.0 **** 0.06
10871 C 132.477452467191 42.99952124638945 75.68048365796744 C 0.0 **** -0.24
10872 H 132.64448289555185 41.95103271170812 75.43047096579909 H 0.0 **** 0.06
10873 H 133.3741686310348 43.57472461453777 75.4468366584224 H 0.0 **** 0.06
10874 H 132.2552222010151 43.08780764686618 76.7445578712742 H 0.0 **** 0.06
10875 H 131.63825839037563 43.38113573691372 75.10046182607402 H 0.0 **** 0.06
10876 C 104.87126497005966 187.39279434036504 193.84219285843656 C 0.0 **** -0.24
10877 H 104.06308785093074 188.06929697446083 194.11919935715238 H 0.0 **** 0.06
10878 H 104.59021194420012 186.83904411257936 192.94575290579195 H 0.0 **** 0.06
10879 H 105.05614848846696 186.6949930688831 194.65876750178575 H 0.0 **** 0.06
10880 H 105.77528422211702 187.96852495889172 193.64570593188452 H 0.0 **** 0.06
10881 C 88.00635456054837 99.90398933921622 24.060789337303618 C 0.0 **** -0.24
10882 H 87.70840853187764 98.92622956487946 24.44002235388227 H 0.0 **** 0.06
10883 H 87.99510146666535 100.62813021238779 24.87591206667996 H 0.0 **** 0.06
10884 H 87.30918122923234 100.21998202275898 23.28427296967793 H 0.0 **** 0.06
10885 H 89.01104636397977 99.84122305828501 23.643096327819023 H 0.0 **** 0.06
10886 C 102.17301706986123 60.59182095365543 104.76542583238563 C 0.0 **** -0.24
10887 H 101.38039155401253 61.25802491103076 104.42351973391592 H 0.0 **** 0.06
10888 H 103.12323663885269 61.12569314757741 104.76014088921406 H 0.0 **** 0.06
10889 H 102.23520880601367 59.73181437748491 104.09839467428355 H 0.0 **** 0.06
10890 H 101.95140818408473 60.25280001197126 105.7772864853286 H 0.0 **** 0.06
10891 C 71.94183317219448 111.65705504941377 110.99864633180414 C 0.0 **** -0.24
10892 H 72.37927874228883 112.54644547646961 111.45217992817095 H 0.0 **** 0.06
10893 H 70.9281836600477 111.51898647527824 111.37461363532654 H 0.0 **** 0.06
10894 H 72.54551773238985 110.78506993349029 111.25049865823573 H 0.0 **** 0.06
10895 H 71.91404263353485 111.77884134547335 109.91513837215223 H 0.0 **** 0.06
10896 C 197.52282466132408 24.11208750973225 94.3107677407597 C 0.0 **** -0.24
10897 H 197.66815600354462 25.154217421291875 94.59293560221613 H 0.0 **** 0.06
10898 H 196.51160574068757 23.978139054319158 93.9262553304882 H 0.0 **** 0.06
10899 H 197.66840110527883 23.47573861124556 95.18322303679756 H 0.0 **** 0.06
10900 H 198.2434870727372 23.840486156890975 93.5393067372396 H 0.0 **** 0.06
10901 C 35.184708348114555 52.80540854874107 88.74867768290594 C 0.0 **** -0.24
10902 H 34.38247626305724 52.74056055541533 89.48305502457472 H 0.0 **** 0.06
10903 H 35.60016227308034 51.8128583918695 88.57527093930958 H 0.0 **** 0.06
10904 H 35.9666122000647 53.46709923482314 89.12218336938469 H 0.0 **** 0.06
10905 H 34.78890719257015 53.20318937243508 87.81308557642998 H 0.0 **** 0.06
10906 C 38.33506996519779 74.745410853197 59.802182845716715 C 0.0 **** -0.24
10907 H 38.70341021804245 74.47864087866306 60.793487012915435 H 0.0 **** 0.06
10908 H 38.30129943638542 73.85341814117587 59.17534054461608 H 0.0 **** 0.06
10909 H 39.00266318587893 75.48126091972019 59.35263231631964 H 0.0 **** 0.06
10910 H 37.33421921475184 75.16695855094642 59.88882562068079 H 0.0 **** 0.06
10911 C 87.64084398275102 78.0443036922083 3.4461992391992453 C 0.0 **** -0.24
10912 H 86.74373309309496 78.03347773604276 2.8261778204745838 H 0.0 **** 0.06
10913 H 88.16743278561952 77.09513037265481 3.339026671501699 H 0.0 **** 0.06
10914 H 87.35927964043279 78.18740635805119 4.48962572870542 H 0.0 **** 0.06
10915 H 88.29127944000965 78.8594003705474 3.129780542337329 H 0.0 **** 0.06
10916 C 157.7241730456904 14.730178524415294 142.5014161802875 C 0.0 **** -0.24
10917 H 156.6680905607428 14.546651063213375 142.6988373934281 H 0.0 **** 0.06
10918 H 157.82249246632114 15.403365094185801 141.64909180417612 H 0.0 **** 0.06
10919 H 158.22172252840147 13.78672127632501 142.27848883864976 H 0.0 **** 0.06
10920 H 158.1839245724826 15.18525862270343 143.3788683592386 H 0.0 **** 0.06
10921 C 156.2101591870686 134.90264173533114 101.95563659448396 C 0.0 **** -0.24
10922 H 157.27861309157174 134.9515551953821 101.74516708687094 H 0.0 **** 0.06
10923 H 155.80954245681414 133.95890680023516 101.58464561837735 H 0.0 **** 0.06
10924 H 155.70456758265982 135.732018165647 101.46204918842693 H 0.0 **** 0.06
10925 H 156.0491224903712 134.96833130440098 103.03254967638406 H 0.0 **** 0.06
10926 C 15.073811999011411 108.63760213774978 4.9806335395385375 C 0.0 **** -0.24
10927 H 13.992727524310595 108.68073956412147 4.846532033820473 H 0.0 **** 0.06
10928 H 15.542913030435926 109.44148569333703 4.413631664189744 H 0.0 **** 0.06
10929 H 15.445688711253808 107.67630941286558 4.623461689858054 H 0.0 **** 0.06
10930 H 15.313864452924065 108.75009397619192 6.037998231713367 H 0.0 **** 0.06
10931 C 16.105743394593702 129.55112244703525 178.5366968305844 C 0.0 **** -0.24
10932 H 17.08294928597978 129.90666483360133 178.2132252034496 H 0.0 **** 0.06
10933 H 15.348775026726315 129.85916361722883 177.81490653799125 H 0.0 **** 0.06
10934 H 15.869619405399703 129.97408209900675 179.51302324715212 H 0.0 **** 0.06
10935 H 16.120140724955917 128.46289225539755 178.60660016347757 H 0.0 **** 0.06
10936 C 164.45122457163643 7.2431089277128535 62.04896457472148 C 0.0 **** -0.24
10937 H 163.94732109222372 6.644212309333511 62.8072157165773 H 0.0 **** 0.06
10938 H 164.46510741120284 6.69654945417679 61.10546114973528 H 0.0 **** 0.06
10939 H 165.4742022042233 7.445266597463416 62.36749359609763 H 0.0 **** 0.06
10940 H 163.9185595986132 8.184551115655324 61.91725922080073 H 0.0 **** 0.06
10941 C 65.11304478185772 64.63082726087794 104.43109275230978 C 0.0 **** -0.24
10942 H 64.26638639100062 65.08535182650036 103.91550406383402 H 0.0 **** 0.06
10943 H 65.57552160050369 65.36814171078208 105.08855325500221 H 0.0 **** 0.06
10944 H 65.84304969179001 64.28757622262407 103.69813010965274 H 0.0 **** 0.06
10945 H 64.76532731753207 63.78341200228084 105.02199090641972 H 0.0 **** 0.06
10946 C 22.519890857930136 1.4421124339118876 190.87699452717223 C 0.0 **** -0.24
10947 H 21.813788444899842 1.4756210220773482 190.04749333241244 H 0.0 **** 0.06
10948 H 22.05767964848792 1.876287408587615 191.7639993689543 H 0.0 **** 0.06
10949 H 23.412725719947332 2.0110274959593823 190.61667692483925 H 0.0 **** 0.06
10950 H 22.794236022663824 0.4069125218323961 191.07814755114245 H 0.0 **** 0.06
10951 C 11.018978754370778 39.29874802917956 60.94558452751504 C 0.0 **** -0.24
10952 H 11.827452735201945 38.63174931745853 60.64557580713256 H 0.0 **** 0.06
10953 H 11.09556427554682 39.50375336824237 62.01399230501586 H 0.0 **** 0.06
10954 H 10.060099162607742 38.82453657403025 60.7337399371377 H 0.0 **** 0.06
10955 H 11.093533100211403 40.23204765571444 60.38917451878683 H 0.0 **** 0.06
10956 C 139.2995535579546 78.98075838785846 25.831169694177703 C 0.0 **** -0.24
10957 H 139.8152772182424 79.8104176614288 25.34865310662154 H 0.0 **** 0.06
10958 H 138.22621671602525 79.0735379967278 25.66503825924127 H 0.0 **** 0.06
10959 H 139.50495757694154 78.99712728177596 26.901337868970955 H 0.0 **** 0.06
10960 H 139.65268740070064 78.03922461078282 25.408804508527524 H 0.0 **** 0.06
10961 C 51.199917682700715 57.726752098633426 105.91779860027927 C 0.0 **** -0.24
10962 H 52.21352372409436 58.12757440365726 105.93404543631755 H 0.0 **** 0.06
10963 H 50.81343918853216 57.75755549708299 104.89924266202306 H 0.0 **** 0.06
10964 H 50.56168387046992 58.32657721729777 106.5670205357593 H 0.0 **** 0.06
10965 H 51.211544321353344 56.69617391998628 106.27228853907877 H 0.0 **** 0.06
10966 C 142.9527661071445 56.96355662795206 50.271753740956456 C 0.0 **** -0.24
10967 H 141.9612453302732 57.41182306768812 50.20968582500649 H 0.0 **** 0.06
10968 H 143.66777742916588 57.5886871614197 49.737452051841615 H 0.0 **** 0.06
10969 H 142.9313504621797 55.97048758754252 49.82458386147482 H 0.0 **** 0.06
10970 H 143.24948635659712 56.884995006403045 51.317828717166094 H 0.0 **** 0.06
10971 C 64.98664526210376 120.76590038193785 39.50161611052431 C 0.0 **** -0.24
10972 H 65.69291337177083 120.00430082197238 39.83286550309097 H 0.0 **** 0.06
10973 H 65.2866528189495 121.73540917085762 39.89874939666748 H 0.0 **** 0.06
10974 H 63.988771636032425 120.51738466258905 39.86211275723463 H 0.0 **** 0.06
10975 H 64.98029306834746 120.80546374525255 38.41189408458624 H 0.0 **** 0.06
10976 C 164.23938477675478 9.008882993413351 35.61666404984493 C 0.0 **** -0.24
10977 H 164.6957078023334 8.792634664851391 36.58203269120986 H 0.0 **** 0.06
10978 H 163.58637080059043 8.183832263198383 35.33136467879058 H 0.0 **** 0.06
10979 H 165.02019679182501 9.13111227744119 34.865299089005816 H 0.0 **** 0.06
10980 H 163.65607730054725 9.926463201957404 35.686503933133395 H 0.0 **** 0.06
10981 C 196.35095003683477 33.57491668734062 103.99745814823768 C 0.0 **** -0.24
10982 H 196.85666965210902 33.53160477177764 103.03260456288976 H 0.0 **** 0.06
10983 H 197.06846770300788 33.36850844505514 104.792256701979 H 0.0 **** 0.06
10984 H 195.5547866861814 32.83214493183726 104.02422906039527 H 0.0 **** 0.06
10985 H 195.92690554847093 34.56890820620458 104.13998469176872 H 0.0 **** 0.06
10986 C 101.6926620217543 108.2873363078113 49.57259632271979 C 0.0 **** -0.24
10987 H 100.68569787566071 107.99283298554383 49.27733596413293 H 0.0 **** 0.06
10988 H 101.71264198187811 109.3583896223613 49.77495563087754 H 0.0 **** 0.06
10989 H 102.39016514321222 108.05701377461199 48.76749906103234 H 0.0 **** 0.06
10990 H 101.98104462240795 107.74189530467342 50.471012854195266 H 0.0 **** 0.06
10991 C 72.18263160423322 142.80134184411094 0.8729147678384379 C 0.0 **** -0.24
10992 H 72.54291344997678 142.34413273122692 -0.04855823658999725 H 0.0 **** 0.06
10993 H 72.44145599385043 143.86024624908478 0.879085928238112 H 0.0 **** 0.06
10994 H 72.64633495853336 142.30878573015772 1.7276219442035483 H 0.0 **** 0.06
10995 H 71.09985317400299 142.69122205556042 0.9345280009342218 H 0.0 **** 0.06
10996 C 143.36825119715476 151.10854437919613 146.8938082060223 C 0.0 **** -0.24
10997 H 143.10423419274917 152.06326984805304 147.3484168046173 H 0.0 **** 0.06
10998 H 142.4589815453302 150.5719477841302 146.62204086661987 H 0.0 **** 0.06
10999 H 143.94188531392845 150.51525966881087 147.60592114356356 H 0.0 **** 0.06
11000 H 143.9675024259143 151.28516712248125 146.0014399963409 H 0.0 **** 0.06
11001 C 188.95822941398484 67.66820660970694 191.13455716978223 C 0.0 **** -0.24
11002 H 188.68378609298173 68.67325569810424 191.45295762223506 H 0.0 **** 0.06
11003 H 189.42027267676738 67.1371369010177 191.9676818320512 H 0.0 **** 0.06
11004 H 189.66392146011933 67.72979966559404 190.30644866114693 H 0.0 **** 0.06
11005 H 188.0652862339209 67.13207841940152 190.81189521023737 H 0.0 **** 0.06
11006 C 186.62855348384343 34.907193626757305 115.78511814770371 C 0.0 **** -0.24
11007 H 187.6994402207144 34.99806860791773 115.60054827208174 H 0.0 **** 0.06
11008 H 186.07862619691 35.27836674334151 114.91986893792802 H 0.0 **** 0.06
11009 H 186.3621702977011 35.49281252990778 116.66470053119318 H 0.0 **** 0.06
11010 H 186.3773952535567 33.860479095038386 115.95471443535487 H 0.0 **** 0.06
11011 C 180.23297436415058 28.251933378946035 137.30468035419256 C 0.0 **** -0.24
11012 H 180.39443151263583 29.322406634054744 137.43880836038977 H 0.0 **** 0.06
11013 H 180.88525296726021 27.88261924988143 136.51367696082167 H 0.0 **** 0.06
11014 H 179.19288770970059 28.074045954840983 137.0323928475106 H 0.0 **** 0.06
11015 H 180.45869645107607 27.73231590471039 138.23564646126465 H 0.0 **** 0.06
11016 C 92.74044570255876 184.18778560956622 96.54598521243906 C 0.0 **** -0.24
11017 H 93.6665443175404 184.75402833254518 96.64899120049523 H 0.0 **** 0.06
11018 H 92.56650306349991 183.96639520483694 95.49225234201458 H 0.0 **** 0.06
11019 H 91.91023870715617 184.77604152809812 96.93651945552296 H 0.0 **** 0.06
11020 H 92.82146063410596 183.255884889796 97.1048521868623 H 0.0 **** 0.06
11021 C 80.75955683982573 117.99899455658985 118.74110371656869 C 0.0 **** -0.24
11022 H 80.29957653698727 118.98476241343644 118.67019150978291 H 0.0 **** 0.06
11023 H 79.981346056279 117.2411217767251 118.8302076130353 H 0.0 **** 0.06
11024 H 81.40528233213251 117.96296687596146 119.61908509390426 H 0.0 **** 0.06
11025 H 81.35263631222875 117.8094063171927 117.84678234918269 H 0.0 **** 0.06
11026 C 173.12443748642406 90.62077748381569 182.52118348932763 C 0.0 **** -0.24
11027 H 173.20193552150445 91.02064647897208 183.5322218286358 H 0.0 **** 0.06
11028 H 172.07478511491308 90.56067975354168 182.23434933083308 H 0.0 **** 0.06
11029 H 173.56836133161408 89.62629411231748 182.48839469498168 H 0.0 **** 0.06
11030 H 173.65304315676758 91.2783454532713 181.8306068415742 H 0.0 **** 0.06
11031 C 167.76861591682996 0.6165184571119653 93.8609523030359 C 0.0 **** -0.24
11032 H 168.79725751157332 0.3075004686477314 94.04730154357122 H 0.0 **** 0.06
11033 H 167.1493266197391 -0.26572109073379124 93.69631680311716 H 0.0 **** 0.06
11034 H 167.73540703091533 1.2554822286707576 92.97876346794465 H 0.0 **** 0.06
11035 H 167.39384602054275 1.1677449976572234 94.7231521054573 H 0.0 **** 0.06
11036 C 168.78481989749187 178.88814762050075 70.19330764801748 C 0.0 **** -0.24
11037 H 168.8811598249925 178.14318478503478 69.4032148161129 H 0.0 **** 0.06
11038 H 167.78818843870297 178.82673872804827 70.63055056483296 H 0.0 **** 0.06
11039 H 168.93707195991283 179.88325713233974 69.77490227092267 H 0.0 **** 0.06
11040 H 169.5321687662373 178.69950917158306 70.96297761093615 H 0.0 **** 0.06
11041 C 155.1972471732033 31.08512927906324 85.65017988114076 C 0.0 **** -0.24
11042 H 154.2728689751757 30.514076860666876 85.74347398729321 H 0.0 **** 0.06
11043 H 155.03776183324788 31.926027822352467 84.97541937320773 H 0.0 **** 0.06
11044 H 155.98239375710247 30.441544188334376 85.25101225224037 H 0.0 **** 0.06
11045 H 155.49555795440608 31.45575781204471 86.63121447045151 H 0.0 **** 0.06
11046 C 195.94550598019504 184.68787585841312 20.39792969778972 C 0.0 **** -0.24
11047 H 195.1770419479319 183.98358610303387 20.078524525220928 H 0.0 **** 0.06
11048 H 196.55768394150496 184.23103021121972 21.174647054130446 H 0.0 **** 0.06
11049 H 195.4718124611294 185.58817268033727 20.790212478409103 H 0.0 **** 0.06
11050 H 196.57314193124915 184.9507506007726 19.54624626397691 H 0.0 **** 0.06
11051 C 195.30382994328676 56.829784855028976 29.92472645269673 C 0.0 **** -0.24
11052 H 194.88827764188926 55.86627313825417 30.219889356900097 H 0.0 **** 0.06
11053 H 196.29927894461517 56.943003854564154 30.356709640739112 H 0.0 **** 0.06
11054 H 194.6573694729948 57.629325598413516 30.28701521795358 H 0.0 **** 0.06
11055 H 195.37047783685733 56.87978721602053 28.838956469881595 H 0.0 **** 0.06
11056 C 185.21018440053354 179.18004764336536 140.55750222399436 C 0.0 **** -0.24
11057 H 185.7301330790802 179.83124110569744 141.25967322481443 H 0.0 **** 0.06
11058 H 184.1422852404463 179.18485741737584 140.77771791397967 H 0.0 **** 0.06
11059 H 185.5957007508634 178.1650373094602 140.64893979377425 H 0.0 **** 0.06
11060 H 185.37293188001289 179.5397143198803 139.5406011168683 H 0.0 **** 0.06
11061 C 52.78200282490775 21.387439196886845 154.46694081112682 C 0.0 **** -0.24
11062 H 52.053058728298026 22.168205931143206 154.25271087396354 H 0.0 **** 0.06
11063 H 52.263890196534646 20.44063107595005 154.62827409839096 H 0.0 **** 0.06
11064 H 53.34445717362536 21.650535104045503 155.36276017395147 H 0.0 **** 0.06
11065 H 53.46634675463474 21.28805347176882 153.62472437011436 H 0.0 **** 0.06
11066 C 15.703292757167844 95.75328696581988 5.565893721471127 C 0.0 **** -0.24
11067 H 15.145790690503134 95.32080473827043 4.734551271080761 H 0.0 **** 0.06
11068 H 15.485830483508948 95.19632717202126 6.477286408833123 H 0.0 **** 0.06
11069 H 15.408858183006032 96.79430438953477 5.697186057681677 H 0.0 **** 0.06
11070 H 16.77086546678646 95.70131134318788 5.3533244015314665 H 0.0 **** 0.06
11071 C 140.72097423561317 65.70285246796804 58.42330339158923 C 0.0 **** -0.24
11072 H 140.7594939702966 66.43681464459955 59.227994280817484 H 0.0 **** 0.06
11073 H 139.68719057883735 65.56040970723245 58.11049024260433 H 0.0 **** 0.06
11074 H 141.12807572863264 64.75526117582751 58.77806222559951 H 0.0 **** 0.06
11075 H 141.3109776475026 66.05839184387983 57.578747057369526 H 0.0 **** 0.06
11076 C 46.27911378369831 182.48711341789297 174.29796034532578 C 0.0 **** -0.24
11077 H 46.476444732924364 183.50879976511126 174.62144940563357 H 0.0 **** 0.06
11078 H 46.83228139165506 181.79288231799862 174.93141238280455 H 0.0 **** 0.06
11079 H 46.5978151937192 182.3663600212682 173.26265763178785 H 0.0 **** 0.06
11080 H 45.21219083491674 182.28061211353634 174.37720235756143 H 0.0 **** 0.06
11081 C 71.17098406993904 123.63852700081196 172.4678887483239 C 0.0 **** -0.24
11082 H 71.96005247826436 123.28276276186801 171.80611800648316 H 0.0 **** 0.06
11083 H 71.61087819761602 124.2141872132257 173.28307411808453 H 0.0 **** 0.06
11084 H 70.62750712755098 122.78669598192582 172.8765908512406 H 0.0 **** 0.06
11085 H 70.48354520103811 124.27153724276175 171.90594165284108 H 0.0 **** 0.06
11086 C 106.4359975162564 51.10490503014887 36.90649621208203 C 0.0 **** -0.24
11087 H 105.71542893958372 50.63413633731258 37.57628757952466 H 0.0 **** 0.06
11088 H 107.42547575349141 51.0779849765249 37.36233258598048 H 0.0 **** 0.06
11089 H 106.1445868101809 52.140034000597524 36.72972379423152 H 0.0 **** 0.06
11090 H 106.45700298385646 50.56609443167042 35.9585818607199 H 0.0 **** 0.06
11091 C 89.56795138150392 9.4313963802825 90.79783956005417 C 0.0 **** -0.24
11092 H 88.99864205951877 8.812775540331202 91.49057457722483 H 0.0 **** 0.06
11093 H 89.05290584166804 10.38083144081078 90.6514741253007 H 0.0 **** 0.06
11094 H 89.66011159654889 8.91576056460891 89.84211633874901 H 0.0 **** 0.06
11095 H 90.56076074574423 9.616284993563838 91.20797910772745 H 0.0 **** 0.06
11096 C 50.88711681107216 176.93444998711462 23.81940542994775 C 0.0 **** -0.24
11097 H 51.584535342055844 176.89097110389415 24.656601753997194 H 0.0 **** 0.06
11098 H 49.9966264183189 176.35208365197653 24.058952971797964 H 0.0 **** 0.06
11099 H 51.362080472874325 176.52305859421898 22.929813791510185 H 0.0 **** 0.06
11100 H 50.60452723999363 177.97095145086698 23.634893817310257 H 0.0 **** 0.06
11101 C 29.18859946238244 97.40969062692011 64.45628371056374 C 0.0 **** -0.24
11102 H 28.4855812637375 96.76918696848517 64.98877986709059 H 0.0 **** 0.06
11103 H 29.746924920046794 96.81270269714372 63.73492541850642 H 0.0 **** 0.06
11104 H 29.879263700224953 97.86036969861956 65.1683875991759 H 0.0 **** 0.06
11105 H 28.641311584370357 98.1940306316661 63.933434384761256 H 0.0 **** 0.06
11106 C 16.472154020934596 186.35722089421458 191.49847477772784 C 0.0 **** -0.24
11107 H 17.52183922650579 186.1638766882898 191.2763944340378 H 0.0 **** 0.06
11108 H 16.28311194178673 186.17012272914135 192.55505749092035 H 0.0 **** 0.06
11109 H 15.847272112071892 185.69934941179423 190.8947377590166 H 0.0 **** 0.06
11110 H 16.23788240958038 187.3961256501325 191.26391044351072 H 0.0 **** 0.06
11111 C 28.424554773787037 188.31739123763435 87.11705975830722 C 0.0 **** -0.24
11112 H 29.408779684860633 188.17000317407368 86.67057369854089 H 0.0 **** 0.06
11113 H 28.195464080459686 189.38304573447488 87.14661730914193 H 0.0 **** 0.06
11114 H 28.421570176551825 187.91510909564582 88.13001328572003 H 0.0 **** 0.06
11115 H 27.673929721153172 187.79974187982177 86.51905902708964 H 0.0 **** 0.06
11116 C 39.116811796622954 26.964351671026833 125.33655977636008 C 0.0 **** -0.24
11117 H 39.33302933765043 25.94611069430482 125.01343910572902 H 0.0 **** 0.06
11118 H 39.62522436237646 27.66926976190973 124.6789255120706 H 0.0 **** 0.06
11119 H 39.46697248988505 27.102580161821493 126.35898436198221 H 0.0 **** 0.06
11120 H 38.04191535884917 27.13742852991635 125.29350501980198 H 0.0 **** 0.06
11121 C 49.675022105970186 39.74920273185472 37.51220807635053 C 0.0 **** -0.24
11122 H 49.04736857861616 40.25417347329096 36.777558980421475 H 0.0 **** 0.06
11123 H 50.35357285828621 39.06587171465958 37.00269629490502 H 0.0 **** 0.06
11124 H 49.045214433602325 39.188746314204195 38.20328013295921 H 0.0 **** 0.06
11125 H 50.25210709703947 40.49058979053706 38.065544177716276 H 0.0 **** 0.06
11126 C 150.14083155791312 149.52964482051445 169.34167855035437 C 0.0 **** -0.24
11127 H 149.17476340848245 149.53373769721748 168.83760390699507 H 0.0 **** 0.06
11128 H 150.7356867386638 148.6908305301115 168.97996376388133 H 0.0 **** 0.06
11129 H 149.9895236093835 149.43203301470038 170.4172233176916 H 0.0 **** 0.06
11130 H 150.66398185052304 150.4629820575105 169.13269514466944 H 0.0 **** 0.06
11131 C 116.18173898892456 142.86345639740424 137.10403720397161 C 0.0 **** -0.24
11132 H 116.10070263448972 142.26548908893196 136.19579114153976 H 0.0 **** 0.06
11133 H 115.98309000820748 143.90926913210632 136.8674003258525 H 0.0 **** 0.06
11134 H 117.18742785192552 142.76754833736462 137.51259836810183 H 0.0 **** 0.06
11135 H 115.45592243194693 142.51212573991518 137.8361640625688 H 0.0 **** 0.06
11136 C 67.0222312887914 64.49763832507074 42.84416058987438 C 0.0 **** -0.24
11137 H 66.58883659506768 63.99526470104871 43.70884345602508 H 0.0 **** 0.06
11138 H 66.409458355492 65.35954410480258 42.57914275590838 H 0.0 **** 0.06
11139 H 67.05770138730203 63.80493510196726 42.002943725462245 H 0.0 **** 0.06
11140 H 68.03238247480282 64.82904815196662 43.08493806543538 H 0.0 **** 0.06
11141 C 53.91408448237422 28.780804528575686 117.35451386791391 C 0.0 **** -0.24
11142 H 53.21209318404841 29.451942748585907 117.84894726078096 H 0.0 **** 0.06
11143 H 54.333324327036195 29.275973706231753 116.47834371785018 H 0.0 **** 0.06
11144 H 53.393555340956965 27.87405944572197 117.0468542454771 H 0.0 **** 0.06
11145 H 54.71668420072288 28.52182017636096 118.0450067918207 H 0.0 **** 0.06
11146 C 26.357104857661028 90.24102670475858 68.40430633031781 C 0.0 **** -0.24
11147 H 26.352024702081437 89.15650436631941 68.29859371811943 H 0.0 **** 0.06
11148 H 26.30818932899342 90.50261702530733 69.46187641450763 H 0.0 **** 0.06
11149 H 25.494554341200526 90.66078936628472 67.88575390457456 H 0.0 **** 0.06
11150 H 27.273189143131262 90.64409755323197 67.97188273294819 H 0.0 **** 0.06
11151 C 48.38012691241056 67.36372351914719 39.595703998049416 C 0.0 **** -0.24
11152 H 48.658836613354026 66.32826547942415 39.398751606363845 H 0.0 **** 0.06
11153 H 48.225992920293066 67.50063976704178 40.666271766588736 H 0.0 **** 0.06
11154 H 47.459953463356214 67.60035262008233 39.061848056616284 H 0.0 **** 0.06
11155 H 49.17832824823907 68.02472647869214 39.25657213872648 H 0.0 **** 0.06
11156 C 9.405967985015138 130.87302865579863 154.170536690711 C 0.0 **** -0.24
11157 H 8.73299968923996 131.2681831879841 154.9328366938887 H 0.0 **** 0.06
11158 H 8.912113769509943 130.05871369530462 153.6394144235568 H 0.0 **** 0.06
11159 H 10.312643477566837 130.50012878204794 154.6450131153104 H 0.0 **** 0.06
11160 H 9.66137054806228 131.66441238611702 153.4666240676267 H 0.0 **** 0.06
11161 C 191.8475842969537 66.40814916503174 6.439918301877839 C 0.0 **** -0.24
11162 H 191.43889185087002 66.29261913704897 5.4366297317780266 H 0.0 **** 0.06
11163 H 191.65124842140915 65.50503213787567 7.018138459181614 H 0.0 **** 0.06
11164 H 191.37647549021625 67.26142793545358 6.928271169643978 H 0.0 **** 0.06
11165 H 192.922822823321 66.57318604703829 6.376921437430127 H 0.0 **** 0.06
11166 C 91.9530557055154 119.64579536471467 128.71765415020923 C 0.0 **** -0.24
11167 H 91.93508585212032 120.52366039512378 129.36258959608932 H 0.0 **** 0.06
11168 H 92.98056070843018 119.29863441699354 128.60591587480542 H 0.0 **** 0.06
11169 H 91.54893802879621 119.90549196074528 127.73934220701045 H 0.0 **** 0.06
11170 H 91.34860855196979 118.85516997041549 129.16285839398046 H 0.0 **** 0.06
11171 C 47.3080354935357 63.487707207687095 53.16626903462844 C 0.0 **** -0.24
11172 H 48.23752863303318 64.02185796688343 52.970301835243674 H 0.0 **** 0.06
11173 H 47.02835005269452 63.618510591290374 54.21268685719019 H 0.0 **** 0.06
11174 H 47.44853983683234 62.42701693095643 52.957294498448704 H 0.0 **** 0.06
11175 H 46.5192766199593 63.883125626476954 52.52666025981267 H 0.0 **** 0.06
11176 C 20.911144682790336 70.91836658485943 106.36824236343301 C 0.0 **** -0.24
11177 H 21.514291417280674 71.58377292131587 106.98567827056672 H 0.0 **** 0.06
11178 H 20.517484543727903 71.47145215373513 105.51546822533544 H 0.0 **** 0.06
11179 H 20.08421387892122 70.52546979448158 106.95984885575194 H 0.0 **** 0.06
11180 H 21.52906267445951 70.09315718923301 106.01434620657687 H 0.0 **** 0.06
11181 C 180.07183794818138 83.3019119373509 160.1224755502069 C 0.0 **** -0.24
11182 H 179.4931031321301 82.4384679478718 159.79506577234028 H 0.0 **** 0.06
11183 H 180.47795417562173 83.81786608778557 159.25127198574606 H 0.0 **** 0.06
11184 H 180.88841297438432 82.96985296375419 160.7621799409792 H 0.0 **** 0.06
11185 H 179.42654751471062 83.9820506209144 160.67941660009 H 0.0 **** 0.06
11186 C 194.96551890726766 32.73949690526749 98.72340385035235 C 0.0 **** -0.24
11187 H 195.16840842976495 32.65634253691994 99.79144406020367 H 0.0 **** 0.06
11188 H 193.98073467724168 33.18308290206491 98.57460136641859 H 0.0 **** 0.06
11189 H 194.9913888544388 31.749326313911297 98.27028952503215 H 0.0 **** 0.06
11190 H 195.7230246987164 33.371945417693695 98.25939354959661 H 0.0 **** 0.06
11191 C 90.42410133112048 105.02779044740032 25.283835462840443 C 0.0 **** -0.24
11192 H 89.60911894377591 104.97345776754088 24.561838677814393 H 0.0 **** 0.06
11193 H 90.01620922411973 105.20866634548238 26.27831905777981 H 0.0 **** 0.06
11194 H 91.09586553559143 105.84162993647703 25.012050974227122 H 0.0 **** 0.06
11195 H 90.97442195884685 104.0860709667547 25.28152392471347 H 0.0 **** 0.06
11196 C 171.99673888886457 85.15338214808503 154.5575419784666 C 0.0 **** -0.24
11197 H 171.53012030486008 85.13761824516376 155.54253044566923 H 0.0 **** 0.06
11198 H 173.08037199185085 85.19817377361508 154.66868018924006 H 0.0 **** 0.06
11199 H 171.6512033145034 86.02760210381061 154.0058098719475 H 0.0 **** 0.06
11200 H 171.72372425958204 84.24913549186059 154.01234503411575 H 0.0 **** 0.06
11201 C 38.8728577874526 27.36508300600002 141.80145679871939 C 0.0 **** -0.24
11202 H 39.8013105859261 26.82632713657742 141.6165753202413 H 0.0 **** 0.06
11203 H 38.05083606674032 26.859601884721982 141.29430019931772 H 0.0 **** 0.06
11204 H 38.96232824593022 28.38408884620462 141.42260477479712 H 0.0 **** 0.06
11205 H 38.67733317316453 27.39299184986406 142.8731763949479 H 0.0 **** 0.06
11206 C 18.04076049984593 178.04441025244932 7.645284100268725 C 0.0 **** -0.24
11207 H 17.486895923736768 177.45983721581126 8.379844566003527 H 0.0 **** 0.06
11208 H 17.342319441330147 178.6148025811237 7.032468161624166 H 0.0 **** 0.06
11209 H 18.618359574167926 177.37400841741558 7.009146251033826 H 0.0 **** 0.06
11210 H 18.716233103389925 178.7286430593551 8.159138085751096 H 0.0 **** 0.06
11211 C 124.01996873049586 134.0208080210615 153.94721446043553 C 0.0 **** -0.24
11212 H 123.35208625308326 133.70533651280317 154.74868398744727 H 0.0 **** 0.06
11213 H 124.97005832031937 133.4927914137818 154.03728081433587 H 0.0 **** 0.06
11214 H 124.19282017559601 135.09459775587482 154.02040372913842 H 0.0 **** 0.06
11215 H 123.56524150103877 133.78988786215353 152.98407288124648 H 0.0 **** 0.06
11216 C 169.60517383348605 156.2707625598904 56.50147714322867 C 0.0 **** -0.24
11217 H 170.6726971852564 156.43287606696126 56.646407334759374 H 0.0 **** 0.06
11218 H 169.09566794072816 156.32728875630403 57.4633556254318 H 0.0 **** 0.06
11219 H 169.44362095329217 155.2863938143759 56.061329966247456 H 0.0 **** 0.06
11220 H 169.20870925466764 157.0364916019205 55.834815646476216 H 0.0 **** 0.06
11221 C 194.16832404320655 151.4253881202506 32.65210286143291 C 0.0 **** -0.24
11222 H 194.23921907872628 152.20358715664776 31.89204046885135 H 0.0 **** 0.06
11223 H 193.2778297231577 150.82292579608986 32.471615451284976 H 0.0 **** 0.06
11224 H 194.102209392328 151.88689289074847 33.637983639406485 H 0.0 **** 0.06
11225 H 195.05259982648897 150.79091794422212 32.60565304062713 H 0.0 **** 0.06
11226 C 80.24818827310986 27.699817241545418 6.982732655289567 C 0.0 **** -0.24
11227 H 80.29475333237696 28.516705727575868 7.703055905043527 H 0.0 **** 0.06
11228 H 80.97116499031168 27.877224999528266 6.186398026641342 H 0.0 **** 0.06
11229 H 79.24576362882232 27.646243809729185 6.558620180425294 H 0.0 **** 0.06
11230 H 80.4827054772401 26.76044896108226 7.483559571410922 H 0.0 **** 0.06
11231 C 186.3784320873379 26.360267860448573 15.326526081756299 C 0.0 **** -0.24
11232 H 186.24343290995103 25.35974150577829 15.737260686364664 H 0.0 **** 0.06
11233 H 186.97497122688952 26.95791654785353 16.01558905298876 H 0.0 **** 0.06
11234 H 185.40411579362703 26.828657021829287 15.186672448921513 H 0.0 **** 0.06
11235 H 186.88934056400052 26.291514290755856 14.366562988835796 H 0.0 **** 0.06
11236 C 164.46892757116194 182.24457077276065 129.39421420305194 C 0.0 **** -0.24
11237 H 163.96206868431562 182.62299725955089 128.50589659688103 H 0.0 **** 0.06
11238 H 164.91084192374086 183.07732394156503 129.94261513083285 H 0.0 **** 0.06
11239 H 165.25354036533932 181.54910340903797 129.0959113446742 H 0.0 **** 0.06
11240 H 163.74982100695237 181.73039082388811 130.0309051682788 H 0.0 **** 0.06
11241 C 22.967735923596507 167.4374903015455 93.50629963164349 C 0.0 **** -0.24
11242 H 23.98505176577629 167.06114635148492 93.40241808976327 H 0.0 **** 0.06
11243 H 22.561736359492556 167.1273496360588 94.4699390023537 H 0.0 **** 0.06
11244 H 22.348237203035836 167.03440491394832 92.7042652069342 H 0.0 **** 0.06
11245 H 22.974816466312717 168.5252697130823 93.44781484281168 H 0.0 **** 0.06
11246 C 35.76874993836017 6.0136058649667135 99.7826122321409 C 0.0 **** -0.24
11247 H 36.52815009113226 6.780882717826266 99.6337589162809 H 0.0 **** 0.06
11248 H 35.879147885084606 5.582040842837706 100.7774366425638 H 0.0 **** 0.06
11249 H 35.88844799329186 5.2325285962466666 99.03120663055037 H 0.0 **** 0.06
11250 H 34.778647856143124 6.459534897293231 99.68689989298383 H 0.0 **** 0.06
11251 C 180.2799621643713 16.38897306101616 16.76832904265028 C 0.0 **** -0.24
11252 H 180.69519864828166 17.388331549724327 16.908057390383135 H 0.0 **** 0.06
11253 H 179.7556586957162 16.345162102717524 15.813320576044049 H 0.0 **** 0.06
11254 H 179.58364629869342 16.169170397409673 17.577805844984354 H 0.0 **** 0.06
11255 H 181.08694408664556 15.656610982676597 16.774128609617094 H 0.0 **** 0.06
11256 C 181.80645448260012 28.973864167108786 154.37565869629677 C 0.0 **** -0.24
11257 H 182.61007104129865 29.529178269631174 154.85920637137178 H 0.0 **** 0.06
11258 H 182.04761827505413 27.911181903434198 154.37867534844696 H 0.0 **** 0.06
11259 H 181.69413842888042 29.319068837787597 153.3479843717717 H 0.0 **** 0.06
11260 H 180.87474151115833 29.136981850758758 154.9183577534144 H 0.0 **** 0.06
11261 C 23.783120944873133 143.33251941629797 27.985966653289495 C 0.0 **** -0.24
11262 H 23.587522523708373 142.45056499002516 28.597212401741785 H 0.0 **** 0.06
11263 H 24.711042574539434 143.19157254476556 27.431755403034174 H 0.0 **** 0.06
11264 H 23.872825499348565 144.20690297792845 28.629809135037533 H 0.0 **** 0.06
11265 H 22.959141405116412 143.47890617104062 27.287466601650692 H 0.0 **** 0.06
11266 C 97.75603657404352 60.76108878649413 25.73307574114115 C 0.0 **** -0.24
11267 H 97.69959432217388 60.07652914279856 26.57973509435257 H 0.0 **** 0.06
11268 H 96.87814939828115 61.408460993219165 25.731643551670487 H 0.0 **** 0.06
11269 H 97.78817983945342 60.18976179494065 24.80596413115711 H 0.0 **** 0.06
11270 H 98.6565356874959 61.368763238808356 25.81652493532431 H 0.0 **** 0.06
11271 C 76.52004332408747 125.99584757167023 195.40735714164484 C 0.0 **** -0.24
11272 H 75.95559198584502 125.52199253614981 194.60396571477528 H 0.0 **** 0.06
11273 H 76.34703024325731 127.07205187569261 195.38670617471612 H 0.0 **** 0.06
11274 H 77.58288323991538 125.79609434498556 195.27036937478564 H 0.0 **** 0.06
11275 H 76.1943713163885 125.59323618858338 196.36595584685205 H 0.0 **** 0.06
11276 C 15.36498220595324 159.3201884528804 108.9871243523136 C 0.0 **** -0.24
11277 H 15.177544139459016 158.24808821164604 108.93673879872927 H 0.0 **** 0.06
11278 H 15.266254249285254 159.75334573718422 107.99165850921793 H 0.0 **** 0.06
11279 H 16.37480464284745 159.49508025316229 109.36036317615464 H 0.0 **** 0.06
11280 H 14.643486930108239 159.7841411336503 109.65917133376408 H 0.0 **** 0.06
11281 C 46.96186452535518 111.82553444762476 62.99098999979773 C 0.0 **** -0.24
11282 H 46.78273643213578 110.84427460518833 63.42970621289933 H 0.0 **** 0.06
11283 H 46.01018370610822 112.3318980275078 62.832575335123124 H 0.0 **** 0.06
11284 H 47.475122982618885 111.7080630233196 62.03669764488288 H 0.0 **** 0.06
11285 H 47.58125645673559 112.41748046701264 63.66563750141893 H 0.0 **** 0.06
11286 C 130.21715977480162 76.54125827380606 16.433926227910476 C 0.0 **** -0.24
11287 H 129.17571001820863 76.48698642524366 16.1166587447629 H 0.0 **** 0.06
11288 H 130.48390391700892 77.57970031347219 16.62988635429484 H 0.0 **** 0.06
11289 H 130.85672136766502 76.1432367353403 15.646523222847165 H 0.0 **** 0.06
11290 H 130.35083044712462 75.95315495841604 17.34254350180433 H 0.0 **** 0.06
11291 C 105.48979885928026 123.20050923053395 134.69709341030688 C 0.0 **** -0.24
11292 H 104.83108950230258 123.26993092351347 133.8317973454184 H 0.0 **** 0.06
11293 H 106.05733763561497 122.271481812611 134.64776323558795 H 0.0 **** 0.06
11294 H 104.89358849405062 123.21592886707342 135.60929027018418 H 0.0 **** 0.06
11295 H 106.17709720011675 124.04703683101457 134.6979382804797 H 0.0 **** 0.06
11296 C 191.174633260917 74.30305923805867 46.59491487244614 C 0.0 **** -0.24
11297 H 191.57627276685386 73.49879654033424 47.211329426972455 H 0.0 **** 0.06
11298 H 191.9957785794527 74.87634157483495 46.16553928733755 H 0.0 **** 0.06
11299 H 190.556247035465 74.95742304743851 47.208740700979405 H 0.0 **** 0.06
11300 H 190.56968671521105 73.87778233443612 45.793711447359044 H 0.0 **** 0.06
11301 C 71.62407493813765 98.59428902289716 82.68842842987112 C 0.0 **** -0.24
11302 H 71.50245646683152 98.40122745712767 83.75463473165743 H 0.0 **** 0.06
11303 H 70.99907143428743 97.90479061651098 82.12157550886789 H 0.0 **** 0.06
11304 H 72.6687065983084 98.4513972771806 82.41080397150208 H 0.0 **** 0.06
11305 H 71.32653605083954 99.61992117026176 82.4696568693318 H 0.0 **** 0.06
11306 C 29.554910578929935 130.64775888341987 130.8678920935507 C 0.0 **** -0.24
11307 H 30.33764711511725 130.61974652922734 130.10896816199022 H 0.0 **** 0.06
11308 H 29.980082938902285 130.9809239402708 131.8153292786789 H 0.0 **** 0.06
11309 H 29.131267883893088 129.65133614406383 130.9886407914121 H 0.0 **** 0.06
11310 H 28.773231046316823 131.34082062410383 130.55718127972426 H 0.0 **** 0.06
11311 C 99.69082468627573 18.033078049260965 23.38069364367169 C 0.0 **** -0.24
11312 H 100.18046730546155 17.863777458225385 24.339540394277265 H 0.0 **** 0.06
11313 H 99.58897576645961 17.08455026758776 22.85345790298703 H 0.0 **** 0.06
11314 H 100.2894234142071 18.720020275399193 22.78302014707492 H 0.0 **** 0.06
11315 H 98.70308236959508 18.462787157476853 23.549162907014818 H 0.0 **** 0.06
11316 C 91.56814078544434 153.20573015526142 152.22562607649644 C 0.0 **** -0.24
11317 H 92.37424980875727 153.7738880938231 151.7603567963103 H 0.0 **** 0.06
11318 H 91.96937852610537 152.61222760028699 153.0465801894636 H 0.0 **** 0.06
11319 H 91.11592027872453 152.54436502540244 151.48545616596851 H 0.0 **** 0.06
11320 H 90.81331731580258 153.89308966420828 152.60776887803655 H 0.0 **** 0.06
11321 C 188.0108457797432 138.23404088540772 162.80252540454876 C 0.0 **** -0.24
11322 H 188.164952574469 137.68557371421548 161.8736537641159 H 0.0 **** 0.06
11323 H 186.94191549139964 138.3129303358756 163.00440459559456 H 0.0 **** 0.06
11324 H 188.43706855325314 139.2333808118059 162.7098239521002 H 0.0 **** 0.06
11325 H 188.49755471177244 137.70583362157618 163.62216079626714 H 0.0 **** 0.06
11326 C 3.653333400981097 154.36445163167448 155.2547417643189 C 0.0 **** -0.24
11327 H 3.0154397199580387 154.63367642719044 156.0962495367504 H 0.0 **** 0.06
11328 H 3.694455076673762 155.19443390891453 154.54921634701296 H 0.0 **** 0.06
11329 H 3.2440973194227354 153.4846142206117 154.7574182683631 H 0.0 **** 0.06
11330 H 4.65759752806855 154.14341371672654 155.61650202922405 H 0.0 **** 0.06
11331 C 168.86888397457193 20.321898285822954 178.3321881928763 C 0.0 **** -0.24
11332 H 168.0056797231077 20.983072139763465 178.40658732652273 H 0.0 **** 0.06
11333 H 168.55794465688825 19.3630874907048 177.9166580562797 H 0.0 **** 0.06
11334 H 169.29406583498715 20.16820325441296 179.32322647259213 H 0.0 **** 0.06
11335 H 169.6176774146264 20.774563559477997 177.68184041963065 H 0.0 **** 0.06
11336 C 81.46246144596932 183.84836896343353 119.89840547851395 C 0.0 **** -0.24
11337 H 81.03419303162781 184.83139858237965 119.70722342605791 H 0.0 **** 0.06
11338 H 82.46918657310903 183.80413074016047 119.48246415086169 H 0.0 **** 0.06
11339 H 80.8421292115259 183.0841025606724 119.42968863664981 H 0.0 **** 0.06
11340 H 81.50493164579967 183.67323744865368 120.97371795936021 H 0.0 **** 0.06
11341 C 132.2384871854772 181.56384231744298 99.06408298561308 C 0.0 **** -0.24
11342 H 132.84640124024344 181.3719100687468 98.17956378811925 H 0.0 **** 0.06
11343 H 132.5195700694852 180.86942803834 99.85599264508437 H 0.0 **** 0.06
11344 H 131.18591297396642 181.42749344800052 98.81614106755762 H 0.0 **** 0.06
11345 H 132.40199760629162 182.58732839096405 99.40141410015224 H 0.0 **** 0.06
11346 C 110.5786679321493 49.0459284875717 51.85117829071163 C 0.0 **** -0.24
11347 H 111.31536506570205 49.83131198724374 51.67863901834119 H 0.0 **** 0.06
11348 H 111.03886918442453 48.23649024372165 52.41958242636173 H 0.0 **** 0.06
11349 H 110.22429999556067 48.663552952111075 50.89455716821948 H 0.0 **** 0.06
11350 H 109.73903060013174 49.45367464068812 52.41363708648734 H 0.0 **** 0.06
11351 C 37.194304732339404 95.40996646767658 17.476085203969618 C 0.0 **** -0.24
11352 H 36.35381094457887 95.79172098654087 18.055709533180305 H 0.0 **** 0.06
11353 H 38.124925690067954 95.80683656283566 17.880373986085246 H 0.0 **** 0.06
11354 H 37.08766340218433 95.71948459461203 16.43669844963334 H 0.0 **** 0.06
11355 H 37.208087539777964 94.32113341398878 17.5318105480559 H 0.0 **** 0.06
11356 C 186.2188115692936 70.21930308239904 52.71714543569681 C 0.0 **** -0.24
11357 H 187.2834205757556 70.4235404812503 52.597372902306375 H 0.0 **** 0.06
11358 H 186.08489505949683 69.210987312179 53.11034943229282 H 0.0 **** 0.06
11359 H 185.7223864620044 70.30176960507728 51.750126266549216 H 0.0 **** 0.06
11360 H 185.78685970712937 70.94144554678124 53.41013572183738 H 0.0 **** 0.06
11361 C 77.09644589162934 186.8389467147764 194.7370411974945 C 0.0 **** -0.24
11362 H 76.83794142941933 185.78493971912076 194.63457958646325 H 0.0 **** 0.06
11363 H 76.42413830481254 187.43817787371455 194.12298891150894 H 0.0 **** 0.06
11364 H 78.1244373549666 186.99436011332088 194.40883406653714 H 0.0 **** 0.06
11365 H 76.99917092737289 187.13636794143366 195.78065647859813 H 0.0 **** 0.06
11366 C 6.071937502963408 158.6211483557951 136.06112514082892 C 0.0 **** -0.24
11367 H 5.202447805954137 158.02079601720118 135.79510371456885 H 0.0 **** 0.06
11368 H 6.592549603741162 158.92854867173293 135.1543981920643 H 0.0 **** 0.06
11369 H 6.745000495924501 158.030088271654 136.68374613974453 H 0.0 **** 0.06
11370 H 5.749296426172293 159.50427095521394 136.61260305780587 H 0.0 **** 0.06
11371 C 71.80666997694644 144.59503444120898 126.6445687511972 C 0.0 **** -0.24
11372 H 71.18152048848093 145.48059523927947 126.76342116008624 H 0.0 **** 0.06
11373 H 72.28938809684773 144.61968940508572 125.66728064368124 H 0.0 **** 0.06
11374 H 71.18848763313393 143.7010385567794 126.72349669343197 H 0.0 **** 0.06
11375 H 72.56808210060471 144.58086175969933 127.42449079736042 H 0.0 **** 0.06
11376 C 95.40670057971619 62.16815510176697 182.13684208210987 C 0.0 **** -0.24
11377 H 96.20138201999555 62.8591206989893 182.41502115407408 H 0.0 **** 0.06
11378 H 95.5132171205158 61.24424008293565 182.70562759093696 H 0.0 **** 0.06
11379 H 95.47166429369352 61.94964664396767 181.07103513527053 H 0.0 **** 0.06
11380 H 94.4386651583155 62.620329723716694 182.3566721413281 H 0.0 **** 0.06
11381 C 47.48790552235542 130.45466708423436 141.25085048084858 C 0.0 **** -0.24
11382 H 47.7760928030048 131.43600355792023 140.8759725451253 H 0.0 **** 0.06
11383 H 48.37048834567982 129.93445756140926 141.6229852597153 H 0.0 **** 0.06
11384 H 47.038418239680524 129.87558787941236 140.4440424838026 H 0.0 **** 0.06
11385 H 46.76607785845917 130.57142823641283 142.0592682822302 H 0.0 **** 0.06
11386 C 13.587349368232509 88.01768094520418 46.95816992458188 C 0.0 **** -0.24
11387 H 12.983740709541934 87.9625199598413 47.86432252969456 H 0.0 **** 0.06
11388 H 14.582617717206801 87.62241068278084 47.159984203232426 H 0.0 **** 0.06
11389 H 13.66610542600921 89.05657176908528 46.637497152698074 H 0.0 **** 0.06
11390 H 13.11410607366733 87.4291876895526 46.17093921132226 H 0.0 **** 0.06
11391 C 149.35553970525126 182.46539549426518 163.4429733809247 C 0.0 **** -0.24
11392 H 149.13569696255038 181.8429646275132 162.5763542960078 H 0.0 **** 0.06
11393 H 150.4352053642386 182.57350155394508 163.54864190159586 H 0.0 **** 0.06
11394 H 148.9472964132141 181.99612840077197 164.33869237438677 H 0.0 **** 0.06
11395 H 148.90375503009193 183.4477737100431 163.3089013471382 H 0.0 **** 0.06
11396 C 174.12338876837538 152.631144390513 30.191979403803003 C 0.0 **** -0.24
11397 H 174.55746475866073 153.49836908827848 29.693718372918383 H 0.0 **** 0.06
11398 H 173.2430495553802 152.29927409522048 29.640847226961895 H 0.0 **** 0.06
11399 H 173.8352256120957 152.90256310480925 31.207641534128285 H 0.0 **** 0.06
11400 H 174.85789938403963 151.82671672700417 30.225009137574588 H 0.0 **** 0.06
11401 C 75.63719217380893 2.482451059949881 64.31860069585512 C 0.0 **** -0.24
11402 H 75.15525992246387 1.967471630677153 63.487761862275605 H 0.0 **** 0.06
11403 H 76.1331539469921 1.7532983111651674 64.95931972329466 H 0.0 **** 0.06
11404 H 74.88699559401002 3.0225164851032105 64.89481339584077 H 0.0 **** 0.06
11405 H 76.37356152129057 3.1860206903477035 63.93033707488533 H 0.0 **** 0.06
11406 C 58.29350536467598 127.1402321910245 55.50461759159015 C 0.0 **** -0.24
11407 H 58.29842928297472 126.19148463766203 56.04175866203087 H 0.0 **** 0.06
11408 H 58.93371900710497 127.06228815768526 54.626099581372074 H 0.0 **** 0.06
11409 H 58.664710403250865 127.92898031927032 56.157419129470384 H 0.0 **** 0.06
11410 H 57.27557725045932 127.37496115322071 55.19211900145416 H 0.0 **** 0.06
11411 C 71.2322883295551 87.93646859420468 85.32101165171156 C 0.0 **** -0.24
11412 H 71.33664811089436 88.05870693439081 84.24347627831878 H 0.0 **** 0.06
11413 H 71.34427844037104 88.90494829279018 85.80917861696204 H 0.0 **** 0.06
11414 H 72.00000094717466 87.25500437128574 85.68573826693213 H 0.0 **** 0.06
11415 H 70.24732668425895 87.52730297077366 85.5460821625218 H 0.0 **** 0.06
11416 C 136.2747680648861 54.3947043686353 110.37001329514962 C 0.0 **** -0.24
11417 H 135.34265406863287 54.473749267505696 110.92904019373043 H 0.0 **** 0.06
11418 H 136.5040569347665 53.34303298457509 110.19323480684685 H 0.0 **** 0.06
11419 H 137.0816267572738 54.85133352302205 110.9421387371082 H 0.0 **** 0.06
11420 H 136.16994502618812 54.9089604144329 109.41505229226829 H 0.0 **** 0.06
11421 C 56.57304939303924 82.58546490146898 172.3947357306356 C 0.0 **** -0.24
11422 H 56.95424667731682 81.60221594106866 172.1209186890565 H 0.0 **** 0.06
11423 H 57.25455292132463 83.05607249254876 173.1024179254677 H 0.0 **** 0.06
11424 H 55.58897926982415 82.47856211923607 172.85285089567606 H 0.0 **** 0.06
11425 H 56.49095479603895 83.20518006403427 171.50135099016802 H 0.0 **** 0.06
11426 C 59.16041868279211 127.10002481935928 104.42391762890986 C 0.0 **** -0.24
11427 H 59.63375059480546 128.05386777063023 104.65606456543608 H 0.0 **** 0.06
11428 H 58.12832948224013 127.11241169604611 104.77422624883641 H 0.0 **** 0.06
11429 H 59.703491907751356 126.29495724587676 104.91827513389202 H 0.0 **** 0.06
11430 H 59.176096462983196 126.93957045938265 103.34523402414086 H 0.0 **** 0.06
11431 C 163.80972044082793 101.65390205756697 13.564321357268682 C 0.0 **** -0.24
11432 H 164.52084114061523 102.43209300091075 13.287011260206441 H 0.0 **** 0.06
11433 H 162.9587803710295 102.10485174672311 14.076082126426016 H 0.0 **** 0.06
11434 H 164.29553638066795 100.93793676625071 14.2267949366885 H 0.0 **** 0.06
11435 H 163.46363242443894 101.14213930033844 12.666398952986654 H 0.0 **** 0.06
11436 C 48.6571828247138 117.63341085989478 95.92030050913894 C 0.0 **** -0.24
11437 H 49.592944267652854 117.18930895380879 95.58307852191675 H 0.0 **** 0.06
11438 H 48.68033737718656 117.74867199731531 97.00404652370469 H 0.0 **** 0.06
11439 H 47.82618296312057 116.98453729853043 95.64208290869973 H 0.0 **** 0.06
11440 H 48.52917253742362 118.60904874133448 95.45329008612217 H 0.0 **** 0.06
11441 C 1.912483128075955 76.07364021661331 88.29183163595644 C 0.0 **** -0.24
11442 H 2.2037335451984887 76.13883701882402 89.34031542704997 H 0.0 **** 0.06
11443 H 2.719051204504545 76.45591315354686 87.66623510375427 H 0.0 **** 0.06
11444 H 1.0126791150277512 76.66682440248115 88.12781959728846 H 0.0 **** 0.06
11445 H 1.7129320736768392 75.03350939511498 88.03479092740537 H 0.0 **** 0.06
11446 C 107.37433453367376 48.776759651597786 2.645839365216318 C 0.0 **** -0.24
11447 H 106.46028442483882 49.135295740738485 3.117578615878159 H 0.0 **** 0.06
11448 H 108.17166010381541 48.728306781703 3.3878150708642636 H 0.0 **** 0.06
11449 H 107.66232456897694 49.459683759515656 1.846274423461125 H 0.0 **** 0.06
11450 H 107.20395039028287 47.78342866484553 2.2313451376596163 H 0.0 **** 0.06
11451 C 8.012981343358291 188.51609703664673 74.29331750730438 C 0.0 **** -0.24
11452 H 8.712634120324708 188.25629114487407 75.08831536439266 H 0.0 **** 0.06
11453 H 7.22421186226174 189.15113552551372 74.69802546353799 H 0.0 **** 0.06
11454 H 7.5735986557556885 187.605508552056 73.88622274596327 H 0.0 **** 0.06
11455 H 8.541434315092602 189.04955736509436 73.50377320964913 H 0.0 **** 0.06
11456 C 21.590461964398372 20.1896760718609 166.70114568214754 C 0.0 **** -0.24
11457 H 22.295638865073755 19.365562838772718 166.59140686359527 H 0.0 **** 0.06
11458 H 21.542233188651736 20.75308275155612 165.76895815042516 H 0.0 **** 0.06
11459 H 21.92115153905729 20.846151471843854 167.50600351864333 H 0.0 **** 0.06
11460 H 20.603098668310636 19.792526236784624 166.9383469240443 H 0.0 **** 0.06
11461 C 141.7062637394577 184.72345436304127 177.46714458100593 C 0.0 **** -0.24
11462 H 142.57113609264937 185.1045951801624 178.00942693930747 H 0.0 **** 0.06
11463 H 140.98731521416883 185.52929079199868 177.31714336668733 H 0.0 **** 0.06
11464 H 141.23972934490857 183.92331158235862 178.04167035809735 H 0.0 **** 0.06
11465 H 142.02601043814786 184.3370429137665 176.49889722445383 H 0.0 **** 0.06
11466 C 80.1604307627666 170.3859438318132 77.83035242316417 C 0.0 **** -0.24
11467 H 79.46164544334152 170.91186421271607 78.48067657804839 H 0.0 **** 0.06
11468 H 79.7799251652651 169.3860800364757 77.62007028658708 H 0.0 **** 0.06
11469 H 81.12979074951369 170.3094854210952 78.32404466979385 H 0.0 **** 0.06
11470 H 80.2712706564779 170.937106178368 76.8958465134073 H 0.0 **** 0.06
11471 C 183.3645495642537 23.983718787900358 181.65975689481257 C 0.0 **** -0.24
11472 H 183.55419646375873 24.263955664739115 180.62338628607438 H 0.0 **** 0.06
11473 H 182.61715883161045 23.19081196740055 181.69083023551823 H 0.0 **** 0.06
11474 H 182.99798392245577 24.851930930290507 182.2082648786318 H 0.0 **** 0.06
11475 H 184.28881355246088 23.630108774386997 182.11603171064388 H 0.0 **** 0.06
11476 C 113.37512015879659 33.06691075863813 111.94903042503412 C 0.0 **** -0.24
11477 H 113.34203292531012 34.11274687783657 111.64442129939752 H 0.0 **** 0.06
11478 H 112.75773382134906 32.92856964165446 112.83748051447523 H 0.0 **** 0.06
11479 H 114.40375312336619 32.7857401953313 112.17237768294439 H 0.0 **** 0.06
11480 H 112.99407308745117 32.442005807846414 111.14103808347937 H 0.0 **** 0.06
11481 C 166.57046260945873 175.60113633970508 2.4772974977345967 C 0.0 **** -0.24
11482 H 165.66850807911638 175.52181121712724 3.08453982358445 H 0.0 **** 0.06
11483 H 167.24303172994505 174.7773219109492 2.7174833853019322 H 0.0 **** 0.06
11484 H 167.0665708811772 176.54840451487777 2.6867998908373423 H 0.0 **** 0.06
11485 H 166.3030097155481 175.55662002922895 1.421514408323013 H 0.0 **** 0.06
11486 C 191.44410457518885 61.10431750309664 22.3019305871901 C 0.0 **** -0.24
11487 H 192.3242738274391 61.71292755886091 22.504157005594493 H 0.0 **** 0.06
11488 H 191.72873097924014 60.051986191228906 22.27170925394006 H 0.0 **** 0.06
11489 H 191.01563264873755 61.39273118912854 21.34192639852023 H 0.0 **** 0.06
11490 H 190.70703630103012 61.25816730261607 23.090495927087687 H 0.0 **** 0.06
11491 C 76.7845985269757 164.79623028689156 189.14499577308692 C 0.0 **** -0.24
11492 H 77.56991726940589 164.35960905686602 188.52781422736052 H 0.0 **** 0.06
11493 H 75.82336391501441 164.35790997045467 188.87379836040685 H 0.0 **** 0.06
11494 H 76.75096050257945 165.87406903430912 188.9817418884285 H 0.0 **** 0.06
11495 H 76.99377900804744 164.59427734925973 190.19564425196657 H 0.0 **** 0.06
11496 C 70.09213105428228 193.0645979929431 189.25851831560792 C 0.0 **** -0.24
11497 H 71.16246053895622 193.15406148844002 189.07196868094695 H 0.0 **** 0.06
11498 H 69.91062066037608 193.0552249607783 190.3334605535236 H 0.0 **** 0.06
11499 H 69.72420470653572 192.13697321317753 188.81954432692987 H 0.0 **** 0.06
11500 H 69.57376748422132 193.91073379318243 188.80829494570014 H 0.0 **** 0.06
11501 C 72.42102536203068 121.43779887832946 187.29486840198456 C 0.0 **** -0.24
11502 H 73.39075378808471 121.49184457851871 186.79935600053594 H 0.0 **** 0.06
11503 H 71.66905387396919 121.09440353375675 186.58395053360763 H 0.0 **** 0.06
11504 H 72.14715365300064 122.42580477372056 187.66504852300565 H 0.0 **** 0.06
11505 H 72.47808550081008 120.73967024193772 188.12892127239294 H 0.0 **** 0.06
11506 C 161.9653999148401 72.71142172760234 148.94329890092877 C 0.0 **** -0.24
11507 H 161.56311277875238 73.71541587607494 148.80681996422913 H 0.0 **** 0.06
11508 H 162.41199109237039 72.36913167431644 148.00993481611079 H 0.0 **** 0.06
11509 H 161.16090807734756 72.03366515767685 149.23088649255703 H 0.0 **** 0.06
11510 H 162.72390829052173 72.72788640965449 149.72565280521553 H 0.0 **** 0.06
11511 C 145.88923566313713 166.89003059881668 185.50092576350647 C 0.0 **** -0.24
11512 H 145.73881511078304 167.96936449957224 185.49606162531046 H 0.0 **** 0.06
11513 H 145.6366900946527 166.4928639588292 186.48366380632294 H 0.0 **** 0.06
11514 H 146.93135355885366 166.66742839030158 185.27447222897962 H 0.0 **** 0.06
11515 H 145.24781714203846 166.4318146672942 184.74725995487512 H 0.0 **** 0.06
11516 C 39.913151898587216 8.627930948805243 17.770587751613604 C 0.0 **** -0.24
11517 H 39.18532556030448 8.084403185030453 18.37462840841613 H 0.0 **** 0.06
11518 H 40.761079593592626 8.91198803905209 18.39349694792881 H 0.0 **** 0.06
11519 H 39.446677954550296 9.5237553962194 17.35966157841439 H 0.0 **** 0.06
11520 H 40.25660981572537 7.9908011380064465 16.95551416676517 H 0.0 **** 0.06
11521 C 30.89613265904603 125.10223173294824 128.74904809806657 C 0.0 **** -0.24
11522 H 30.153526557667107 124.41101514210368 128.350470018877 H 0.0 **** 0.06
11523 H 30.39668857386461 125.86712735185293 129.34401363383688 H 0.0 **** 0.06
11524 H 31.43265150978621 125.57486338000518 127.92644033775485 H 0.0 **** 0.06
11525 H 31.600474469189834 124.55560130001126 129.37648612444696 H 0.0 **** 0.06
11526 C 157.2867645795612 32.393318413903216 63.72368200645877 C 0.0 **** -0.24
11527 H 157.25750659069476 31.68298835465629 64.55104099700986 H 0.0 **** 0.06
11528 H 158.31248960939672 32.496022115688504 63.36976988308942 H 0.0 **** 0.06
11529 H 156.92089794354283 33.36197637609922 64.06533395820026 H 0.0 **** 0.06
11530 H 156.65596930315635 32.031502429731745 62.91209702518603 H 0.0 **** 0.06
11531 C 100.85142854078379 159.02001260468984 131.97435460022245 C 0.0 **** -0.24
11532 H 101.01536436126304 160.09766961473395 131.94151980703577 H 0.0 **** 0.06
11533 H 99.78029044514125 158.81652048607745 131.97106306436535 H 0.0 **** 0.06
11534 H 101.29656563645182 158.61311557234532 132.88262959484734 H 0.0 **** 0.06
11535 H 101.31296642177597 158.55640557410993 131.10277214446398 H 0.0 **** 0.06
11536 C 158.0092450216703 20.755586885477243 35.582349084685674 C 0.0 **** -0.24
11537 H 158.8546222263532 21.049715279338457 36.20436801656663 H 0.0 **** 0.06
11538 H 157.31837042371524 20.150194325149982 36.17038297174767 H 0.0 **** 0.06
11539 H 158.36773377391427 20.175012856983642 34.73257835949431 H 0.0 **** 0.06
11540 H 157.4953002239129 21.64713681777178 35.22197821743136 H 0.0 **** 0.06
11541 C 9.651968697204616 184.04641848402582 17.21978006947792 C 0.0 **** -0.24
11542 H 9.837697434353686 183.43313370696006 18.102431379453847 H 0.0 **** 0.06
11543 H 8.671649169070534 184.5173362674397 17.305767227546724 H 0.0 **** 0.06
11544 H 9.677747838868832 183.4185610143872 16.32940817760496 H 0.0 **** 0.06
11545 H 10.419381588449276 184.8158921427007 17.144750783730444 H 0.0 **** 0.06
11546 C 60.32032801126903 70.56974393028145 151.67659814437297 C 0.0 **** -0.24
11547 H 60.305829664157315 71.60076513258508 152.03112004486152 H 0.0 **** 0.06
11548 H 59.374171242318965 70.34257747282803 151.18366154774765 H 0.0 **** 0.06
11549 H 60.45976876105122 69.89721530788262 152.523085719902 H 0.0 **** 0.06
11550 H 61.13902246407335 70.43985955408269 150.96928130623033 H 0.0 **** 0.06
11551 C 77.29753714729868 48.56180128335731 62.85649724491529 C 0.0 **** -0.24
11552 H 78.32696779776815 48.21562055626363 62.95275802732965 H 0.0 **** 0.06
11553 H 77.29126782849067 49.64030710473939 62.69435656058096 H 0.0 **** 0.06
11554 H 76.74824918640246 48.32839345254415 63.76866510555672 H 0.0 **** 0.06
11555 H 76.82467905824146 48.0645422884555 62.00974084744841 H 0.0 **** 0.06
11556 C 8.126801650012965 5.438271551259618 119.76716474624817 C 0.0 **** -0.24
11557 H 9.033519679702579 5.123422248440164 119.2516776081512 H 0.0 **** 0.06
11558 H 8.32867919650505 5.53190600921431 120.83378075360883 H 0.0 **** 0.06
11559 H 7.34338910335677 4.696662175423199 119.6090666406694 H 0.0 **** 0.06
11560 H 7.800425065046738 6.400938384700936 119.37200072581354 H 0.0 **** 0.06
11561 C 109.47413243307554 41.59788813071789 43.09820700306186 C 0.0 **** -0.24
11562 H 109.84993360311691 40.602720673010566 43.337581001158995 H 0.0 **** 0.06
11563 H 109.02653713945787 41.58706745359572 42.103202932685676 H 0.0 **** 0.06
11564 H 110.29697100725886 42.31165858676846 43.11916111435342 H 0.0 **** 0.06
11565 H 108.72154472818269 41.887909694423556 43.831990989987034 H 0.0 **** 0.06
11566 C 83.05407864415366 192.76057252075663 86.1724757594327 C 0.0 **** -0.24
11567 H 82.76137022711143 193.12722873255007 87.15634347791107 H 0.0 **** 0.06
11568 H 83.78676919270592 193.4393179121335 85.73620871868945 H 0.0 **** 0.06
11569 H 82.1772505196351 192.7083743109721 85.52848396612868 H 0.0 **** 0.06
11570 H 83.49266795203778 191.7678101431341 86.27126823979938 H 0.0 **** 0.06
11571 C 39.30217173411066 30.19772805972353 103.6688587767596 C 0.0 **** -0.24
11572 H 38.2810539915546 30.441409499300576 103.37400183917302 H 0.0 **** 0.06
11573 H 39.98619194665041 30.94028883493553 103.25615239346732 H 0.0 **** 0.06
11574 H 39.56361116738856 29.21044557057421 103.28702843706057 H 0.0 **** 0.06
11575 H 39.3773733334541 30.19894728068752 104.75607076451033 H 0.0 **** 0.06
11576 C 184.43006193512323 131.2055784500003 132.49466030777907 C 0.0 **** -0.24
11577 H 184.0628333038796 132.2217143319681 132.64405146812763 H 0.0 **** 0.06
11578 H 185.5194967924619 131.2110450904961 132.48656925220106 H 0.0 **** 0.06
11579 H 184.05969245192475 130.82251699997107 131.54362452520948 H 0.0 **** 0.06
11580 H 184.0749494196951 130.5692027178576 133.3056533571326 H 0.0 **** 0.06
11581 C 148.39162105348464 54.22618500735658 66.84294558013583 C 0.0 **** -0.24
11582 H 147.89111198600924 54.29976487932953 65.87698265241904 H 0.0 **** 0.06
11583 H 147.9052601863136 54.893897783921375 67.55538678990953 H 0.0 **** 0.06
11584 H 149.43808760998448 54.51252669170924 66.73294607267336 H 0.0 **** 0.06
11585 H 148.33206110396995 53.19987582111874 67.20597417513031 H 0.0 **** 0.06
11586 C 129.85761622630721 198.77571368109318 22.557736847028437 C 0.0 **** -0.24
11587 H 130.57176320956017 199.36435191220133 21.982583142146268 H 0.0 **** 0.06
11588 H 130.3174636810123 197.83189010135024 22.85105076630073 H 0.0 **** 0.06
11589 H 128.97601907944073 198.57800515733294 21.94814642035601 H 0.0 **** 0.06
11590 H 129.56558503068857 199.32982106322015 23.449794284524373 H 0.0 **** 0.06
11591 C 171.6720544505131 17.18651148321274 58.899493247438926 C 0.0 **** -0.24
11592 H 171.43591900074264 18.027652590147255 58.24774071081006 H 0.0 **** 0.06
11593 H 171.11912366118287 17.285840401386608 59.83468522534133 H 0.0 **** 0.06
11594 H 172.74117792860963 17.1788918824345 59.10868833686425 H 0.0 **** 0.06
11595 H 171.390608029612 16.2563301310945 58.4078315699297 H 0.0 **** 0.06
11596 C 141.76523634970172 44.98024631112679 61.091103970785184 C 0.0 **** -0.24
11597 H 141.53192179025535 43.91749810336188 61.027817000097514 H 0.0 **** 0.06
11598 H 142.3800598152941 45.16542786607664 61.97185284441048 H 0.0 **** 0.06
11599 H 140.84025614019475 45.55133710264357 61.16611454436401 H 0.0 **** 0.06
11600 H 142.30849920791422 45.285659865993125 60.1969497861694 H 0.0 **** 0.06
11601 C 67.133951366048 21.242022210822967 163.10781354572694 C 0.0 **** -0.24
11602 H 66.12685195126664 21.629478097682593 163.2595480886789 H 0.0 **** 0.06
11603 H 67.09251695380522 20.364231994934073 162.4626661081794 H 0.0 **** 0.06
11604 H 67.56567498340331 20.96569529845057 164.07064991534438 H 0.0 **** 0.06
11605 H 67.75124623434118 22.008246524372908 162.63964475923362 H 0.0 **** 0.06
11606 C 126.51246435596136 79.75983996287968 171.02915411862975 C 0.0 **** -0.24
11607 H 126.5155009693438 79.86762810559546 172.1139209981427 H 0.0 **** 0.06
11608 H 127.53632531748747 79.80239023352226 170.657040025384 H 0.0 **** 0.06
11609 H 125.92925164380222 80.56634999832818 170.58466432254315 H 0.0 **** 0.06
11610 H 126.06923270830612 78.80083533070626 170.76206145506683 H 0.0 **** 0.06
11611 C 172.73982983953107 123.26847282105734 143.6197354854787 C 0.0 **** -0.24
11612 H 172.43978395013943 123.20846489473337 142.5741991797126 H 0.0 **** 0.06
11613 H 172.59630470825206 122.29775813612446 144.09559391607772 H 0.0 **** 0.06
11614 H 172.13185444641204 124.01608958987441 144.12930567040954 H 0.0 **** 0.06
11615 H 173.79023885698768 123.55153818586075 143.6806826603047 H 0.0 **** 0.06
11616 C 47.3862824574565 138.80979378704157 50.13961069511515 C 0.0 **** -0.24
11617 H 47.95862366242807 137.94038493579836 50.46178837632419 H 0.0 **** 0.06
11618 H 46.33161897971621 138.54259663136938 50.06462177823437 H 0.0 **** 0.06
11619 H 47.74742710777713 139.1425543156922 49.165984649819194 H 0.0 **** 0.06
11620 H 47.50630048665789 139.61477947407704 50.865451878513426 H 0.0 **** 0.06
11621 C 172.88619056642898 23.139736595780647 156.98106356021745 C 0.0 **** -0.24
11622 H 172.8281687884627 24.225154809556216 156.9020164277157 H 0.0 **** 0.06
11623 H 172.63893490076077 22.834981659148397 157.9982064986912 H 0.0 **** 0.06
11624 H 173.89680896357984 22.812332794057454 156.7383932616693 H 0.0 **** 0.06
11625 H 172.18085459959275 22.687027438649977 156.28433529873132 H 0.0 **** 0.06
11626 C 36.495527983737475 120.33918541804809 168.1950930322244 C 0.0 **** -0.24
11627 H 36.66312809426233 119.5210488008945 167.4932394842856 H 0.0 **** 0.06
11628 H 37.19810115053343 120.25525098231594 169.02396071099517 H 0.0 **** 0.06
11629 H 35.47513937970032 120.28663558012045 168.5750828990683 H 0.0 **** 0.06
11630 H 36.64453738156118 121.29078454299099 167.68518815929323 H 0.0 **** 0.06
11631 C 32.62946583571548 79.17870799139945 36.97216084736016 C 0.0 **** -0.24
11632 H 32.83486031851693 78.1465019894195 37.25704955068082 H 0.0 **** 0.06
11633 H 31.980903582406413 79.1912407871248 36.09589226610095 H 0.0 **** 0.06
11634 H 33.56736519810099 79.68365279062971 36.73734335649283 H 0.0 **** 0.06
11635 H 32.13696393919248 79.69238509662762 37.79697135060246 H 0.0 **** 0.06
11636 C 71.20767665410492 190.01627069566462 11.869466849284294 C 0.0 **** -0.24
11637 H 71.41033326292047 190.7167126560213 12.679700175434043 H 0.0 **** 0.06
11638 H 72.14523126536845 189.73318492314343 11.39081824974707 H 0.0 **** 0.06
11639 H 70.55319475989405 190.48765075067854 11.135962257319392 H 0.0 **** 0.06
11640 H 70.7219473282365 189.1275344528152 12.271386714636513 H 0.0 **** 0.06
11641 C 158.8947374942121 54.220178835656185 20.247044164196154 C 0.0 **** -0.24
11642 H 158.1523135818542 53.86901455047126 19.530342648232306 H 0.0 **** 0.06
11643 H 158.42213315210344 54.90087290821012 20.95476118821216 H 0.0 **** 0.06
11644 H 159.69140092036534 54.74281895881467 19.716464861754332 H 0.0 **** 0.06
11645 H 159.3121661723977 53.36904542064303 20.783599713620816 H 0.0 **** 0.06
11646 C 185.83652061732127 99.83155433318026 67.55702378150818 C 0.0 **** -0.24
11647 H 185.92187523088893 100.53637750466416 68.3835215424503 H 0.0 **** 0.06
11648 H 185.6146024182502 98.83902842085482 67.94739319533466 H 0.0 **** 0.06
11649 H 186.77748218652115 99.80408731252086 67.0065098445819 H 0.0 **** 0.06
11650 H 185.03496021199584 100.14855104757052 66.88988910171139 H 0.0 **** 0.06
11651 C 150.26614349835376 41.25424850432191 59.291690476190354 C 0.0 **** -0.24
11652 H 150.71024170894327 40.714829133719036 58.45536028158183 H 0.0 **** 0.06
11653 H 150.8918341913529 41.13061435258982 60.176156109283 H 0.0 **** 0.06
11654 H 149.27093961686606 40.85783437266889 59.49293846315844 H 0.0 **** 0.06
11655 H 150.19198423189084 42.312643532418946 59.04312451576402 H 0.0 **** 0.06
11656 C 191.95730059972942 10.022647215078848 18.204021677337096 C 0.0 **** -0.24
11657 H 192.27647338220456 9.94049034647935 19.24310958074699 H 0.0 **** 0.06
11658 H 191.2431797217044 9.230010660951109 17.980743046919883 H 0.0 **** 0.06
11659 H 192.82365684160908 9.92726798097226 17.54938028782604 H 0.0 **** 0.06
11660 H 191.48630200330467 10.99309078028358 18.045253587019772 H 0.0 **** 0.06
11661 C 111.84740327772676 16.97409376538951 20.058913955571484 C 0.0 **** -0.24
11662 H 112.2707285174921 17.203046796959853 21.037610518674057 H 0.0 **** 0.06
11663 H 111.94209047003594 15.906305438791946 19.86350133903909 H 0.0 **** 0.06
11664 H 112.38259254847927 17.5336541156162 19.2921934550061 H 0.0 **** 0.06
11665 H 110.79410482050753 17.254348265797148 20.045517739773686 H 0.0 **** 0.06
11666 C 44.4788766280721 48.47875839517678 150.55243517421115 C 0.0 **** -0.24
11667 H 44.92658163740195 49.448404471716856 150.7705209271557 H 0.0 **** 0.06
11668 H 43.650317591404615 48.6098957164956 149.85579493149373 H 0.0 **** 0.06
11669 H 44.11040814902057 48.03359287876586 151.476455367587 H 0.0 **** 0.06
11670 H 45.227874070878045 47.82451496197805 150.10704205786772 H 0.0 **** 0.06
11671 C 117.03302642907522 74.91040304861122 3.6540761404170965 C 0.0 **** -0.24
11672 H 117.89718611348633 74.54493889850212 3.100112551443857 H 0.0 **** 0.06
11673 H 116.20908577078512 74.20245926191664 3.5495193072704225 H 0.0 **** 0.06
11674 H 116.73144571180273 75.88013052171534 3.25813500718683 H 0.0 **** 0.06
11675 H 117.29332501345436 75.01228599440843 4.70773842017946 H 0.0 **** 0.06
11676 C 10.096863722289697 70.17822166825471 53.368495882342415 C 0.0 **** -0.24
11677 H 11.089046554474152 70.62593290601052 53.43084627650822 H 0.0 **** 0.06
11678 H 10.109952075063092 69.36516917048158 52.642167425069715 H 0.0 **** 0.06
11679 H 9.375794445312152 70.93371701373064 53.055285763573764 H 0.0 **** 0.06
11680 H 9.812661814309479 69.7880675827962 54.34568406421815 H 0.0 **** 0.06
11681 C 19.50679174031677 30.048024286207806 196.01653584592668 C 0.0 **** -0.24
11682 H 20.254798036194018 30.750090973848046 195.64564007856742 H 0.0 **** 0.06
11683 H 19.161713284226437 29.41844735878334 195.19577616408165 H 0.0 **** 0.06
11684 H 18.663460036261228 30.601327475932578 196.4305574804742 H 0.0 **** 0.06
11685 H 19.948482510137893 29.424661879077803 196.7935089725493 H 0.0 **** 0.06
11686 C 150.60937934673535 10.540774225476923 5.373390992754679 C 0.0 **** -0.24
11687 H 150.62034976848238 11.562966698904205 5.750370910041994 H 0.0 **** 0.06
11688 H 151.34966678526035 10.437697524605795 4.579251577731888 H 0.0 **** 0.06
11689 H 149.6186802900667 10.309809775600456 4.9792266493951445 H 0.0 **** 0.06
11690 H 150.84658474684784 9.85262790094194 6.1846788050043315 H 0.0 **** 0.06
11691 C 133.86881787986624 175.05456136003562 184.281049085472 C 0.0 **** -0.24
11692 H 134.94272225575497 174.88708101720727 184.37461430970671 H 0.0 **** 0.06
11693 H 133.51760804470646 174.63490355432285 183.3385494022504 H 0.0 **** 0.06
11694 H 133.66609875413033 176.1253868799821 184.30205733195072 H 0.0 **** 0.06
11695 H 133.3528125818999 174.57042424725657 185.10999327193684 H 0.0 **** 0.06
11696 C 18.125398240840923 185.89870044895036 63.092030888644615 C 0.0 **** -0.24
11697 H 18.43275164438407 186.64810034884016 63.822374223815075 H 0.0 **** 0.06
11698 H 18.787515337024615 185.94309721868964 62.226331982029365 H 0.0 **** 0.06
11699 H 17.10097358146038 186.0962963678872 62.77795186751388 H 0.0 **** 0.06
11700 H 18.18328949057735 184.90778710253701 63.542535081599794 H 0.0 **** 0.06
11701 C 183.3971483221487 1.4458130380489393 46.48867622200055 C 0.0 **** -0.24
11702 H 184.30974992777863 2.0073687429923694 46.29313557232439 H 0.0 **** 0.06
11703 H 182.93452547955897 1.812372708084439 47.40622395548468 H 0.0 **** 0.06
11704 H 183.63811605026427 0.38867522039764424 46.60129893234489 H 0.0 **** 0.06
11705 H 182.70515750679473 1.5745542358168692 45.656659942953695 H 0.0 **** 0.06
11706 C 0.32378469646357644 20.068171406477347 38.18586470285027 C 0.0 **** -0.24
11707 H 0.687829284208135 21.084437029932786 38.33399432510761 H 0.0 **** 0.06
11708 H 0.3133486156286267 19.542793480977622 39.140927951918584 H 0.0 **** 0.06
11709 H 0.9808375638787652 19.544832594405648 37.49044776071335 H 0.0 **** 0.06
11710 H -0.6854451470706522 20.10049164517409 37.777122514860324 H 0.0 **** 0.06
11711 C 77.06002898186063 106.90584417865904 22.114038860192608 C 0.0 **** -0.24
11712 H 76.97818975807613 107.52432286574776 21.21935558029446 H 0.0 **** 0.06
11713 H 76.26765270315519 106.15667940354675 22.110771294769904 H 0.0 **** 0.06
11714 H 76.96412125417847 107.53411567023005 22.99932543149737 H 0.0 **** 0.06
11715 H 78.03080879781932 106.40861683673918 22.12379781468644 H 0.0 **** 0.06
11716 C 110.31404774882867 5.834035432423249 59.197182641794925 C 0.0 **** -0.24
11717 H 110.4011972011237 6.6502625514457065 58.4795762314709 H 0.0 **** 0.06
11718 H 110.87084832740572 4.970059007719023 58.83257248816375 H 0.0 **** 0.06
11719 H 109.26416392980013 5.567137973430725 59.31633123086861 H 0.0 **** 0.06
11720 H 110.72065402280998 6.150522941093961 60.15776875436758 H 0.0 **** 0.06
11721 C 10.705995016818882 117.27160020264168 48.61891430168214 C 0.0 **** -0.24
11722 H 11.36190410586996 116.52322323196097 49.063582556786 H 0.0 **** 0.06
11723 H 11.141961764711311 117.62858815062964 47.68524396006305 H 0.0 **** 0.06
11724 H 10.587825363243695 118.10741521243673 49.30777993644483 H 0.0 **** 0.06
11725 H 9.730793477570387 116.82560738603192 48.41790660056614 H 0.0 **** 0.06
11726 C 114.82693675464944 42.66000872810707 149.07659879013045 C 0.0 **** -0.24
11727 H 115.763838916217 42.324395718253186 149.5222140377308 H 0.0 **** 0.06
11728 H 114.53315455365114 41.96745304640365 148.28605569268177 H 0.0 **** 0.06
11729 H 114.96059540803782 43.65627002697988 148.6560355330704 H 0.0 **** 0.06
11730 H 114.05099613280538 42.68851121925957 149.84078424876725 H 0.0 **** 0.06
11731 C 28.473053090497856 116.48103705908386 23.9044287671194 C 0.0 **** -0.24
11732 H 28.214372200818318 115.94157107726289 22.99355263723089 H 0.0 **** 0.06
11733 H 28.40761693971865 115.80565764020548 24.757158162346812 H 0.0 **** 0.06
11734 H 27.780522784471586 117.3112348616462 24.044006955435933 H 0.0 **** 0.06
11735 H 29.48984275828998 116.86660867050625 23.822642396979504 H 0.0 **** 0.06
11736 C 159.08474863683406 1.6459962326398454 7.911099764777461 C 0.0 **** -0.24
11737 H 159.74424307420531 1.5710688300464426 8.776309378726637 H 0.0 **** 0.06
11738 H 158.18865658860037 2.2029151939832445 8.18555194956901 H 0.0 **** 0.06
11739 H 158.80544802164204 0.6456580310492939 7.580250354792014 H 0.0 **** 0.06
11740 H 159.60311395685392 2.164165031269306 7.104257664064626 H 0.0 **** 0.06
11741 C 57.295535956760546 111.38206495642234 90.0394724388276 C 0.0 **** -0.24
11742 H 57.37171395394752 110.29597953393355 90.09056106586081 H 0.0 **** 0.06
11743 H 56.51821130505489 111.72420387346023 90.7239803403732 H 0.0 **** 0.06
11744 H 57.040259859101695 111.68033198111331 89.0221098677385 H 0.0 **** 0.06
11745 H 58.24962201386157 111.82704269114936 90.32102044848375 H 0.0 **** 0.06
11746 C 190.45497983877107 178.17690302553754 85.44340372231139 C 0.0 **** -0.24
11747 H 190.24375241803142 177.14438666598681 85.72143901565337 H 0.0 **** 0.06
11748 H 191.40121854137442 178.22136929187207 84.90544022731291 H 0.0 **** 0.06
11749 H 190.5186876020286 178.78932272950394 86.34271629567985 H 0.0 **** 0.06
11750 H 189.65573928740872 178.55245236111693 84.80486875224761 H 0.0 **** 0.06
11751 C 195.55927800272877 74.74022304464768 183.86031956822404 C 0.0 **** -0.24
11752 H 195.82410604995619 74.17025733028856 184.75101585608925 H 0.0 **** 0.06
11753 H 194.57204664792351 74.4346869567816 183.51473366222916 H 0.0 **** 0.06
11754 H 196.2941750404902 74.55080355518476 183.07724849484356 H 0.0 **** 0.06
11755 H 195.54830725116787 75.80297136868808 184.09925950467337 H 0.0 **** 0.06
11756 C 19.26732961811399 170.34858996359986 1.0402731250703425 C 0.0 **** -0.24
11757 H 18.86004883308378 169.40557394326015 0.6755789640489525 H 0.0 **** 0.06
11758 H 20.334208193157068 170.23349509471154 1.2333766567475664 H 0.0 **** 0.06
11759 H 18.75964378691637 170.63065428346675 1.9628079507031089 H 0.0 **** 0.06
11760 H 19.11501343483374 171.12429247916162 0.2901764257916284 H 0.0 **** 0.06
11761 C 1.662729783472912 159.248561582496 141.2461231925555 C 0.0 **** -0.24
11762 H 2.6842921923307586 159.61457648815903 141.34879751212685 H 0.0 **** 0.06
11763 H 1.676575032065216 158.24464553195074 140.82266653748403 H 0.0 **** 0.06
11764 H 1.1035444433834982 159.91422363447091 140.58801264891616 H 0.0 **** 0.06
11765 H 1.1867716602662597 159.222481311966 142.22646719893865 H 0.0 **** 0.06
11766 C 14.874950122173175 89.09914804607544 141.39219279512517 C 0.0 **** -0.24
11767 H 15.157572444022719 89.08077314241595 140.3396655190844 H 0.0 **** 0.06
11768 H 14.82179467842576 90.1318169562175 141.73592683130477 H 0.0 **** 0.06
11769 H 15.618863182956432 88.55888098790805 141.9771812850259 H 0.0 **** 0.06
11770 H 13.90108879941944 88.62395811977174 141.51535272340232 H 0.0 **** 0.06
11771 C 35.24680331587521 94.3034912792395 102.79993326289423 C 0.0 **** -0.24
11772 H 36.319920458300174 94.22724053570474 102.97345009815447 H 0.0 **** 0.06
11773 H 34.99160351455279 95.33296318348542 102.54864191451139 H 0.0 **** 0.06
11774 H 34.711535468579314 94.00522844660213 103.70066311596639 H 0.0 **** 0.06
11775 H 34.96575903258251 93.64784928380115 101.97557935002047 H 0.0 **** 0.06
11776 C 163.87577689214243 31.178979175366763 157.88745876587132 C 0.0 **** -0.24
11777 H 164.8754927494776 31.23604502566056 157.45758859694183 H 0.0 **** 0.06
11778 H 163.82500055692296 30.336116830426008 158.57714603248888 H 0.0 **** 0.06
11779 H 163.1441710237461 31.042333289064302 157.09106662712213 H 0.0 **** 0.06
11780 H 163.65867130689097 32.10222149308794 158.42517754167847 H 0.0 **** 0.06
11781 C 135.65957088491592 33.22237213919715 196.4571277625522 C 0.0 **** -0.24
11782 H 135.1637396726012 33.66486925245883 197.32003816132274 H 0.0 **** 0.06
11783 H 135.5392996060028 33.87653201495942 195.5930465286799 H 0.0 **** 0.06
11784 H 135.2159994219971 32.25059470718463 196.24197747322208 H 0.0 **** 0.06
11785 H 136.72085682460607 33.09700623110052 196.67304264803988 H 0.0 **** 0.06
11786 C 30.71144569598357 15.066347231418206 99.38440295982926 C 0.0 **** -0.24
11787 H 30.079468479708368 14.642101466035342 100.16435616512354 H 0.0 **** 0.06
11788 H 31.731091388306965 15.164894277793337 99.75788366997887 H 0.0 **** 0.06
11789 H 30.33154269328145 16.04741497525754 99.1015170363772 H 0.0 **** 0.06
11790 H 30.70544304552689 14.409397444580861 98.51448248408639 H 0.0 **** 0.06
11791 C 63.38969623939846 73.76919361421862 24.85392605144898 C 0.0 **** -0.24
11792 H 63.2298390185579 74.75061780041263 24.407014509699025 H 0.0 **** 0.06
11793 H 64.28657070010209 73.79438668336817 25.47269675928368 H 0.0 **** 0.06
11794 H 63.51139064242355 73.02656553425865 24.0651651897343 H 0.0 **** 0.06
11795 H 62.52932073090376 73.5058637764992 25.469935048050786 H 0.0 **** 0.06
11796 C 58.36286616662106 90.496173820575 131.5138237691733 C 0.0 **** -0.24
11797 H 58.52576728060713 89.9499123041748 130.58424736800973 H 0.0 **** 0.06
11798 H 59.27520380437777 91.0259625892437 131.78869753700255 H 0.0 **** 0.06
11799 H 58.09657951820296 89.7940912709281 132.30463109116928 H 0.0 **** 0.06
11800 H 57.55269207975829 91.2128074210691 131.3760415793185 H 0.0 **** 0.06
11801 C 153.45485682642146 190.5072854086942 129.36337363368094 C 0.0 **** -0.24
11802 H 153.66906187835326 190.81151605521978 130.38759361885863 H 0.0 **** 0.06
11803 H 154.15717798510678 189.72982084716594 129.0621485760835 H 0.0 **** 0.06
11804 H 153.55727974925347 191.36588792721022 128.70031562278064 H 0.0 **** 0.06
11805 H 152.43740798524766 190.12114550076268 129.30382949866262 H 0.0 **** 0.06
11806 C 49.40373071493326 113.09651053877855 52.46130516025465 C 0.0 **** -0.24
11807 H 50.30157562374933 112.76690796017888 51.93905203248707 H 0.0 **** 0.06
11808 H 49.55513565733793 113.00676844372737 53.53665141416272 H 0.0 **** 0.06
11809 H 48.5593733175927 112.47667687945153 52.15846606319806 H 0.0 **** 0.06
11810 H 49.19879577326111 114.13742024117067 52.20840523417647 H 0.0 **** 0.06
11811 C 93.24285080721128 194.70462683901553 83.95502725520322 C 0.0 **** -0.24
11812 H 92.86398135822091 193.6871154600721 83.86332011840742 H 0.0 **** 0.06
11813 H 93.37148277758592 194.95062974248629 85.01000598104744 H 0.0 **** 0.06
11814 H 92.5332054667048 195.39798320004314 83.50391183306914 H 0.0 **** 0.06
11815 H 94.20254996122512 194.7828192910657 83.44427275987621 H 0.0 **** 0.06
11816 C 61.42702642285781 41.59715033053152 58.72867591184311 C 0.0 **** -0.24
11817 H 61.25354449699172 42.64137719774658 58.98721205474453 H 0.0 **** 0.06
11818 H 62.49772740942568 41.42397820446206 58.61291524958111 H 0.0 **** 0.06
11819 H 60.918232782901455 41.364830413529035 57.793764608826336 H 0.0 **** 0.06
11820 H 61.039322432476766 40.957440966163404 59.52204861514835 H 0.0 **** 0.06
11821 C 160.9449198836989 16.650706054016467 120.93422710535165 C 0.0 **** -0.24
11822 H 160.76951430071554 15.633661264971238 120.58371396893023 H 0.0 **** 0.06
11823 H 160.42932100255246 17.354290003328828 120.28021478648685 H 0.0 **** 0.06
11824 H 162.01436829661557 16.859787167836913 120.92305345059509 H 0.0 **** 0.06
11825 H 160.5646753920085 16.754333651024183 121.95101821147821 H 0.0 **** 0.06
11826 C 55.22195798217541 22.57277656057424 191.8822761858989 C 0.0 **** -0.24
11827 H 55.374212634929336 23.03388884673332 190.90627276951375 H 0.0 **** 0.06
11828 H 54.64135845273091 23.243770900046783 192.5146759383541 H 0.0 **** 0.06
11829 H 56.188486869502015 22.380024514043782 192.34710112664578 H 0.0 **** 0.06
11830 H 54.68440520520767 21.632121112765134 191.7593492148702 H 0.0 **** 0.06
11831 C 3.8136432941803093 89.70680583923385 15.083004976083544 C 0.0 **** -0.24
11832 H 4.511459682533257 90.49830461121311 14.809230122892984 H 0.0 **** 0.06
11833 H 2.905226053709839 89.80187247640802 14.486508390565973 H 0.0 **** 0.06
11834 H 3.5647586861840352 89.79200932656491 16.14068521860071 H 0.0 **** 0.06
11835 H 4.272589724209354 88.73639377674812 14.894229228773725 H 0.0 **** 0.06
11836 C 111.74058242407094 61.5724157514325 155.47615847066743 C 0.0 **** -0.24
11837 H 112.69755369100005 62.08263791400307 155.36432809569772 H 0.0 **** 0.06
11838 H 111.90132262672898 60.59210179267674 155.9254766492811 H 0.0 **** 0.06
11839 H 111.27621752056899 61.452230435062816 154.49766299487408 H 0.0 **** 0.06
11840 H 111.0879632444873 62.16465999297003 156.1179416558898 H 0.0 **** 0.06
11841 C 94.77089959791243 102.092498489723 157.12349237095435 C 0.0 **** -0.24
11842 H 95.50098131026391 101.99368828410115 156.3191268102156 H 0.0 **** 0.06
11843 H 94.1688019258948 101.18581366864913 157.17966801877208 H 0.0 **** 0.06
11844 H 94.12432670489602 102.9467818015487 156.92351438720272 H 0.0 **** 0.06
11845 H 95.29101440166164 102.2425974368829 158.06893383054722 H 0.0 **** 0.06
11846 C 143.53175829337357 28.11824524337881 79.01095572749378 C 0.0 **** -0.24
11847 H 142.89653788141175 28.439226856861538 79.83652432807759 H 0.0 **** 0.06
11848 H 143.81331865499115 27.074351591148854 79.15456464298128 H 0.0 **** 0.06
11849 H 144.4287089853223 28.7366822332947 78.98159891350682 H 0.0 **** 0.06
11850 H 142.98670502900552 28.222132463544426 78.07237910198943 H 0.0 **** 0.06
11851 C 152.82567816489274 179.33896096884882 79.49232290925548 C 0.0 **** -0.24
11852 H 153.85873162214747 179.67133367479374 79.59341997439694 H 0.0 **** 0.06
11853 H 152.21240038697826 179.82489637603925 80.25187531193288 H 0.0 **** 0.06
11854 H 152.77724195554362 178.25758024935166 79.62353408908618 H 0.0 **** 0.06
11855 H 152.4544448034765 179.60149849808724 78.50263079602482 H 0.0 **** 0.06
11856 C 32.83649434630689 105.63241238087244 129.87037569746232 C 0.0 **** -0.24
11857 H 32.97156524109215 106.5796233698581 130.392672434179 H 0.0 **** 0.06
11858 H 33.27690695173726 105.70076055015784 128.8755722240732 H 0.0 **** 0.06
11859 H 31.771817601093744 105.4149723287693 129.78240442896202 H 0.0 **** 0.06
11860 H 33.32531731421864 104.83649371899241 130.430998781578 H 0.0 **** 0.06
11861 C 99.09548877350846 49.88443235023121 125.00522482040793 C 0.0 **** -0.24
11862 H 98.60151003081126 50.647358190014344 124.40427821067257 H 0.0 **** 0.06
11863 H 99.75794268935033 49.29487527762315 124.37096228562226 H 0.0 **** 0.06
11864 H 98.34623031734986 49.23232896282346 125.45341072745202 H 0.0 **** 0.06
11865 H 99.6783519190912 50.36383757149615 125.79177416545724 H 0.0 **** 0.06
11866 C 31.738635873260876 173.6547738300062 166.3718507466977 C 0.0 **** -0.24
11867 H 31.87316815127427 172.6730873240722 166.82759561284638 H 0.0 **** 0.06
11868 H 32.52131343095034 173.82193739873495 165.63224892670794 H 0.0 **** 0.06
11869 H 31.79679345677407 174.4237472241729 167.1426310734209 H 0.0 **** 0.06
11870 H 30.76317103238567 173.69844616981075 165.88765992844878 H 0.0 **** 0.06
11871 C 53.75136373798941 193.8836297721105 96.85865124235465 C 0.0 **** -0.24
11872 H 54.76285532814923 193.8245293422687 97.26286854230699 H 0.0 **** 0.06
11873 H 53.22772988872542 194.72529542059388 97.31243557361535 H 0.0 **** 0.06
11874 H 53.21757180485274 192.96000913775154 97.08191515101532 H 0.0 **** 0.06
11875 H 53.800017481397376 194.0243011418383 95.7789531099886 H 0.0 **** 0.06
11876 C 21.425812507256012 4.809580226046975 25.292937703726764 C 0.0 **** -0.24
11877 H 21.008514140751856 3.97809936969513 25.860276513765683 H 0.0 **** 0.06
11878 H 22.438870879166302 4.56169408041017 24.975465050811025 H 0.0 **** 0.06
11879 H 21.44998091175472 5.701603046827614 25.920631024551426 H 0.0 **** 0.06
11880 H 20.806125376814293 4.998831335213453 24.416520818473288 H 0.0 **** 0.06
11881 C 6.142615919510924 11.535519163877893 110.85243167997339 C 0.0 **** -0.24
11882 H 7.048720890643338 10.936054193151485 110.76959935548317 H 0.0 **** 0.06
11883 H 5.759247845719649 11.754412291144462 109.85574446484046 H 0.0 **** 0.06
11884 H 6.369911497112319 12.469579390628766 111.36662513064672 H 0.0 **** 0.06
11885 H 5.391635753356574 10.983235431075862 111.41695106983647 H 0.0 **** 0.06
11886 C 176.45596451416048 179.92727639363417 122.31810191405467 C 0.0 **** -0.24
11887 H 176.1439493827512 180.55361060217552 121.48193463718164 H 0.0 **** 0.06
11888 H 176.90176773866753 179.00821922663656 121.93738535736591 H 0.0 **** 0.06
11889 H 175.58915342175214 179.6839062948185 122.93267836298176 H 0.0 **** 0.06
11890 H 177.18847105831367 180.46534793448086 122.91950432084516 H 0.0 **** 0.06
11891 C 43.015822613484886 63.95078936963591 61.07178092458966 C 0.0 **** -0.24
11892 H 42.568981079784436 64.65860926448443 61.770316058931755 H 0.0 **** 0.06
11893 H 42.270737981045045 63.213253991017126 60.77572838020586 H 0.0 **** 0.06
11894 H 43.855843829195805 63.448023681167626 61.551345006047825 H 0.0 **** 0.06
11895 H 43.36902695974065 64.48507485183742 60.18997120069545 H 0.0 **** 0.06
11896 C 39.039325434272996 37.3581564315667 184.5697196965892 C 0.0 **** -0.24
11897 H 39.97631117352117 36.92397389307362 184.91720481944083 H 0.0 **** 0.06
11898 H 39.12484385513551 38.44530303750413 184.5583810123375 H 0.0 **** 0.06
11899 H 38.230875412209684 37.063838299563116 185.239836930075 H 0.0 **** 0.06
11900 H 38.82400698236111 37.000538401890495 183.56286867023107 H 0.0 **** 0.06
11901 C 186.604355173603 30.14263897782176 8.79529515895635 C 0.0 **** -0.24
11902 H 185.86726937414392 30.08870823936489 7.993051605730756 H 0.0 **** 0.06
11903 H 187.2661326973251 30.991465223608316 8.622398654588352 H 0.0 **** 0.06
11904 H 187.18861140022528 29.22219482630497 8.81278586251247 H 0.0 **** 0.06
11905 H 186.09369661763287 30.266947514717586 9.750199294687206 H 0.0 **** 0.06
11906 C 94.5399905061114 111.38595017699663 130.23446259395052 C 0.0 **** -0.24
11907 H 94.91305240465843 110.936949761052 131.15473598785871 H 0.0 **** 0.06
11908 H 94.82347330214614 112.43816926761838 130.20299545236335 H 0.0 **** 0.06
11909 H 93.45447155725114 111.30093375487922 130.2032781674929 H 0.0 **** 0.06
11910 H 94.97008988975941 110.86759928691117 129.37768458917054 H 0.0 **** 0.06
11911 C 50.91538021282432 68.81221374235514 192.17062551027078 C 0.0 **** -0.24
11912 H 51.31378914321907 69.66513584732189 192.71992678081247 H 0.0 **** 0.06
11913 H 50.03029884790007 68.43200596113002 192.68236542438368 H 0.0 **** 0.06
11914 H 51.67083729105171 68.02860936850834 192.1208715993401 H 0.0 **** 0.06
11915 H 50.64675734152232 69.1229754506125 191.16156477335193 H 0.0 **** 0.06
11916 C 164.64240340168203 137.86981362488183 144.97811324003865 C 0.0 **** -0.24
11917 H 165.08748681399337 137.91365829802896 143.98385819576995 H 0.0 **** 0.06
11918 H 163.68820089409581 138.39565844923874 144.97277894851103 H 0.0 **** 0.06
11919 H 165.31281903876427 138.34045879362506 145.6975350150168 H 0.0 **** 0.06
11920 H 164.48220721852346 136.82873254789067 145.2587625944624 H 0.0 **** 0.06
11921 C 193.04218201741588 182.70051545445665 78.02139005166067 C 0.0 **** -0.24
11922 H 193.96807734905235 182.14117997056772 78.15555537668801 H 0.0 **** 0.06
11923 H 192.1943510772234 182.067397144056 78.28360101804219 H 0.0 **** 0.06
11924 H 192.9545307433819 183.01159486151798 76.98019047969075 H 0.0 **** 0.06
11925 H 193.052589798527 183.58012951567935 78.66510541252438 H 0.0 **** 0.06
11926 C 45.507572296077115 123.64315872593289 189.4204688540002 C 0.0 **** -0.24
11927 H 45.005739154656126 122.8843178292941 188.81943333777366 H 0.0 **** 0.06
11928 H 44.96968543018234 123.77719995146111 190.35935189601037 H 0.0 **** 0.06
11929 H 45.52734345201014 124.58559638965613 188.87378153975786 H 0.0 **** 0.06
11930 H 46.528513880542334 123.32231040278089 189.63015037772286 H 0.0 **** 0.06
11931 C 138.12602139608975 176.0368045102817 174.75720379404424 C 0.0 **** -0.24
11932 H 137.67091791500948 175.952869223868 173.7700916518237 H 0.0 **** 0.06
11933 H 137.39630442492478 176.44174172647303 175.4590974449486 H 0.0 **** 0.06
11934 H 138.98801167487048 176.7004254442607 174.70421646455793 H 0.0 **** 0.06
11935 H 138.44576823266368 175.0507405588291 175.0942194128092 H 0.0 **** 0.06
11936 C 62.346815576858546 91.46395720571348 175.8704058200402 C 0.0 **** -0.24
11937 H 63.11551416730279 90.7200576544177 176.08033586177564 H 0.0 **** 0.06
11938 H 62.26023676678065 92.1451329387788 176.71720592791874 H 0.0 **** 0.06
11939 H 61.392481007464596 90.9641531433007 175.7064848127522 H 0.0 **** 0.06
11940 H 62.62038456621852 92.0265859524275 174.9772016957786 H 0.0 **** 0.06
11941 C 171.68385576955814 103.68379483523177 100.11681187595781 C 0.0 **** -0.24
11942 H 170.67807270709903 104.02922234066105 100.35598953504365 H 0.0 **** 0.06
11943 H 172.25378443326122 104.50342127797478 99.67769284457793 H 0.0 **** 0.06
11944 H 171.62500226929404 102.86016658410381 99.40581508595886 H 0.0 **** 0.06
11945 H 172.1771084895966 103.34477457564867 101.02670289007452 H 0.0 **** 0.06
11946 C 162.21550352076588 91.51240500850514 139.96740434847962 C 0.0 **** -0.24
11947 H 161.3399412548023 92.06912618822463 139.63268814153247 H 0.0 **** 0.06
11948 H 162.1484712833976 91.34475245496662 141.0425829353896 H 0.0 **** 0.06
11949 H 163.11594061522362 92.08345859724741 139.74261221046993 H 0.0 **** 0.06
11950 H 162.25499396709984 90.55338303465783 139.45043911751046 H 0.0 **** 0.06
11951 C 157.71272379022452 22.97497673375136 45.93151184973685 C 0.0 **** -0.24
11952 H 157.30554785668346 23.625013679915753 45.15675871454664 H 0.0 **** 0.06
11953 H 157.18670700063444 22.019304247405387 45.91598237586973 H 0.0 **** 0.06
11954 H 157.5829458986265 23.445845789010463 46.90568057350431 H 0.0 **** 0.06
11955 H 158.77325999205635 22.809187205825936 45.74568545161284 H 0.0 **** 0.06
11956 C 185.56867923255496 158.50864805877768 161.7030429929919 C 0.0 **** -0.24
11957 H 186.31788514715643 159.09473123359223 161.17039235600288 H 0.0 **** 0.06
11958 H 185.93389322867407 158.27340106396161 162.70222278100044 H 0.0 **** 0.06
11959 H 185.3775010822062 157.5834025862403 161.15885880814852 H 0.0 **** 0.06
11960 H 184.64519942255066 159.08308149926114 161.7784747730442 H 0.0 **** 0.06
11961 C 178.13743686740895 98.64277547634074 17.49402043170386 C 0.0 **** -0.24
11962 H 178.6949018169704 99.18042616638945 16.726880123175988 H 0.0 **** 0.06
11963 H 177.09484618303264 98.96074697309152 17.474158836963284 H 0.0 **** 0.06
11964 H 178.56487864587376 98.86067512940713 18.47297597667466 H 0.0 **** 0.06
11965 H 178.1949954854076 97.57222327913436 17.30165971835845 H 0.0 **** 0.06
11966 C 79.19904028169157 146.5625041620781 78.74200572803827 C 0.0 **** -0.24
11967 H 79.15773620079355 147.62314344455615 78.49246618081025 H 0.0 **** 0.06
11968 H 80.20931576755996 146.30348547543616 79.05741724675673 H 0.0 **** 0.06
11969 H 78.92845452178972 145.97291170590086 77.86647688840795 H 0.0 **** 0.06
11970 H 78.49949398262103 146.35238728445893 79.55167082947693 H 0.0 **** 0.06
11971 C 47.66582831936725 34.617041947403905 83.08412394552639 C 0.0 **** -0.24
11972 H 47.615653500713776 34.51810333464972 81.99949666658375 H 0.0 **** 0.06
11973 H 46.67039718379553 34.824484786343646 83.47570916858868 H 0.0 **** 0.06
11974 H 48.33673649991033 35.436928216181215 83.34246562401083 H 0.0 **** 0.06
11975 H 48.04159705911235 33.6898364787848 83.51559182771376 H 0.0 **** 0.06
11976 C 103.6600423767674 158.79463191836317 185.8150904241839 C 0.0 **** -0.24
11977 H 103.45427152021031 159.30915401373113 186.7537490689739 H 0.0 **** 0.06
11978 H 104.69073572185596 158.43827414411265 185.81481881076232 H 0.0 **** 0.06
11979 H 103.51454186857245 159.48402891021047 184.98363022382222 H 0.0 **** 0.06
11980 H 102.98200700458818 157.94734315153224 185.70821908782403 H 0.0 **** 0.06
11981 C 136.866511774985 172.8368042382401 167.99216773521346 C 0.0 **** -0.24
11982 H 136.9191925323066 173.51717140681035 168.84282157884115 H 0.0 **** 0.06
11983 H 135.82986174517657 172.5448826358854 167.8242237703231 H 0.0 **** 0.06
11984 H 137.46471979212455 171.94945115085565 168.20019984337915 H 0.0 **** 0.06
11985 H 137.25310721998986 173.334515366503 167.10339371714434 H 0.0 **** 0.06
11986 C 134.95358582157144 114.31324135900456 22.352155269130463 C 0.0 **** -0.24
11987 H 135.27973281974093 113.60140501858496 21.593427481056608 H 0.0 **** 0.06
11988 H 135.29885916570962 113.98333257069157 23.33200535603069 H 0.0 **** 0.06
11989 H 133.8656947739672 114.37242010328197 22.35137842570714 H 0.0 **** 0.06
11990 H 135.37172936453177 115.29607039076984 22.131445539940614 H 0.0 **** 0.06
11991 C 41.409890707846856 136.91543938276652 84.48611199428262 C 0.0 **** -0.24
11992 H 40.47976357425088 136.3478541832269 84.47528499508579 H 0.0 **** 0.06
11993 H 42.053891231833774 136.54100883021582 85.28166196943985 H 0.0 **** 0.06
11994 H 41.191116858525504 137.96916382816013 84.6600904016345 H 0.0 **** 0.06
11995 H 41.91436026447897 136.80231400086922 83.52573507382638 H 0.0 **** 0.06
11996 C 132.8148189870906 178.36844649166034 11.285397014235201 C 0.0 **** -0.24
11997 H 133.069713094428 177.52143437999905 11.923034982138063 H 0.0 **** 0.06
11998 H 131.84022483461797 178.1976368579382 10.828554611484265 H 0.0 **** 0.06
11999 H 133.56895411713526 178.4764631810736 10.505945746298039 H 0.0 **** 0.06
12000 H 132.78136125205975 179.27792374349087 11.886037015320738 H 0.0 **** 0.06
12001 C 186.76117077918116 146.9475325791527 72.39801400571503 C 0.0 **** -0.24
12002 H 187.36933781371476 147.84286836647414 72.27244589594478 H 0.0 **** 0.06
12003 H 185.9643521079061 147.14776146032725 73.11548743299092 H 0.0 **** 0.06
12004 H 187.38507821397562 146.13271329579717 72.76422666706257 H 0.0 **** 0.06
12005 H 186.32433421688776 146.66803382623965 71.43850059782123 H 0.0 **** 0.06
12006 C 28.183985068551692 103.42861435736853 194.72411764474458 C 0.0 **** -0.24
12007 H 27.827941457673774 104.24384489678681 194.09434642085557 H 0.0 **** 0.06
12008 H 28.037677390497095 103.69114898433747 195.77237874707248 H 0.0 **** 0.06
12009 H 29.24371074225155 103.2601720516501 194.53637756691933 H 0.0 **** 0.06
12010 H 27.624952197004177 102.5213733276812 194.4947518946774 H 0.0 **** 0.06
12011 C 8.76176181372287 16.70864531672089 192.47912036938462 C 0.0 **** -0.24
12012 H 7.703388742749837 16.47771944489341 192.36000547811102 H 0.0 **** 0.06
12013 H 9.171462271004799 16.12208604487276 193.30096002618046 H 0.0 **** 0.06
12014 H 8.878539492839252 17.77076925740039 192.69691250395016 H 0.0 **** 0.06
12015 H 9.292437210690991 16.465865534822 191.5588420043032 H 0.0 **** 0.06
12016 C 74.73620811759882 70.61402933997343 90.12667324598058 C 0.0 **** -0.24
12017 H 75.35083345269031 69.72333701340438 90.25741176777032 H 0.0 **** 0.06
12018 H 73.76499978572025 70.32891431829268 89.72176524266737 H 0.0 **** 0.06
12019 H 75.23060716431509 71.29808106683177 89.43689103317718 H 0.0 **** 0.06
12020 H 74.5991577093308 71.1050377584728 91.08926275620286 H 0.0 **** 0.06
12021 C 86.78073858607021 4.110004717563754 113.55742265862912 C 0.0 **** -0.24
12022 H 87.11630359924871 4.510346368781427 112.60049038450808 H 0.0 **** 0.06
12023 H 87.51432155987126 4.350153390450828 114.32770269885631 H 0.0 **** 0.06
12024 H 86.67425788681146 3.0280171266665548 113.48062166565666 H 0.0 **** 0.06
12025 H 85.8194898491702 4.552078498572371 113.81958924980702 H 0.0 **** 0.06
12026 C 172.51777160887212 184.5789921091719 33.58262825612172 C 0.0 **** -0.24
12027 H 172.0411222768761 185.4691005472203 33.17212117575909 H 0.0 **** 0.06
12028 H 173.40079130903922 184.33466854010072 32.99190844877927 H 0.0 **** 0.06
12029 H 171.81729444888813 183.74475989144716 33.55050306859127 H 0.0 **** 0.06
12030 H 172.81097714509283 184.767193422474 34.61562364307065 H 0.0 **** 0.06
12031 C 85.148223683261 39.54968855473618 153.79328323345595 C 0.0 **** -0.24
12032 H 85.38754017299186 40.08192488885689 152.87315239223176 H 0.0 **** 0.06
12033 H 84.09610370577684 39.26314032111941 153.78477632273535 H 0.0 **** 0.06
12034 H 85.34201299522823 40.19707402933278 154.64832967952208 H 0.0 **** 0.06
12035 H 85.76803455496042 38.655469696239834 153.86710615280265 H 0.0 **** 0.06
12036 C 163.9858379974045 52.75236377021156 181.66057306962105 C 0.0 **** -0.24
12037 H 164.78438353668903 52.99108081877671 180.95844568457215 H 0.0 **** 0.06
12038 H 163.2550390572714 52.10617657734012 181.1735466650873 H 0.0 **** 0.06
12039 H 163.49905782466175 53.672064487252015 181.98411645695157 H 0.0 **** 0.06
12040 H 164.40563740931708 52.23897330503195 182.5259223504196 H 0.0 **** 0.06
12041 C 168.83937946476107 181.69383026288628 198.3776469261012 C 0.0 **** -0.24
12042 H 169.79659257334708 182.16610336810137 198.1605597893671 H 0.0 **** 0.06
12043 H 168.15880619618807 181.84898625537608 197.54039288485808 H 0.0 **** 0.06
12044 H 168.4141552327394 182.13356313130905 199.27942462805046 H 0.0 **** 0.06
12045 H 168.98851929376536 180.62515503923967 198.53139430579566 H 0.0 **** 0.06
12046 C 155.00284681555766 146.38467359973413 183.9732285236018 C 0.0 **** -0.24
12047 H 154.23736460294407 145.64178726450453 183.74956906740857 H 0.0 **** 0.06
12048 H 155.9844931287883 145.91193218950076 183.95620671388826 H 0.0 **** 0.06
12049 H 154.8197129329974 146.8070158306143 184.9616194984141 H 0.0 **** 0.06
12050 H 154.9682595328747 147.17897750765653 183.2271120988692 H 0.0 **** 0.06
12051 C 40.3749686484872 148.82454065639664 98.85725928743071 C 0.0 **** -0.24
12052 H 41.25099742963056 148.70464875476065 98.2211302491211 H 0.0 **** 0.06
12053 H 39.50363492296054 148.39799982979213 98.3605187714731 H 0.0 **** 0.06
12054 H 40.203885692632014 149.8849078344935 99.04274446499142 H 0.0 **** 0.06
12055 H 40.5408003898396 148.3121003212026 99.8053206970163 H 0.0 **** 0.06
12056 C 158.88254987676117 77.73323405177102 12.160622935024179 C 0.0 **** -0.24
12057 H 159.87750911983403 77.99924794988492 12.516898647037408 H 0.0 **** 0.06
12058 H 158.81201252509956 77.93872151819815 11.092662702777687 H 0.0 **** 0.06
12059 H 158.13637486039482 78.32282824422445 12.694484568510717 H 0.0 **** 0.06
12060 H 158.70400016355188 76.6729667354108 12.338917338594115 H 0.0 **** 0.06
12061 C 163.35658582487176 38.26586017692186 111.1480112944783 C 0.0 **** -0.24
12062 H 163.630658917807 37.39863718792222 111.74846437465266 H 0.0 **** 0.06
12063 H 163.08204033924426 39.09125068231236 111.80665992864766 H 0.0 **** 0.06
12064 H 162.50993722435365 38.01268035507546 110.5096361582024 H 0.0 **** 0.06
12065 H 164.20431698768417 38.56063757655268 110.52888864195756 H 0.0 **** 0.06
12066 C 141.60688678747198 33.059658452150586 138.68527017284737 C 0.0 **** -0.24
12067 H 140.5577755794379 33.17065816392592 138.4093780916735 H 0.0 **** 0.06
12068 H 141.72783197388466 32.168118681016296 139.30050328161207 H 0.0 **** 0.06
12069 H 141.9300922008765 33.93601144130625 139.24642466604234 H 0.0 **** 0.06
12070 H 142.21070984219483 32.96322361221135 137.78295275527353 H 0.0 **** 0.06
12071 C 67.75744480379488 105.96858883000618 51.10254151366752 C 0.0 **** -0.24
12072 H 66.80310578055159 105.50960509936615 50.8475481601123 H 0.0 **** 0.06
12073 H 67.58052347467206 106.9008599672888 51.63933669113055 H 0.0 **** 0.06
12074 H 68.31764422561622 106.17395297379883 50.18997103787953 H 0.0 **** 0.06
12075 H 68.33015723759303 105.28859466919391 51.73452262753895 H 0.0 **** 0.06
12076 C 32.96792761283734 154.467621074767 179.3563787165424 C 0.0 **** -0.24
12077 H 32.75856696726305 155.52025587669235 179.54507095981967 H 0.0 **** 0.06
12078 H 33.43362790077123 154.35991475318377 178.3759154031875 H 0.0 **** 0.06
12079 H 32.03718787042635 153.9016479696378 179.38229474616753 H 0.0 **** 0.06
12080 H 33.64460094382264 154.08913316420526 180.1230173561404 H 0.0 **** 0.06
12081 C 75.99528704482236 104.83105762349194 100.14750820675934 C 0.0 **** -0.24
12082 H 76.15137498769559 105.73871745762472 100.73032623776706 H 0.0 **** 0.06
12083 H 75.29507273025928 105.03646786341412 99.33606425269977 H 0.0 **** 0.06
12084 H 75.58611794494738 104.05147536384843 100.79109725110217 H 0.0 **** 0.06
12085 H 76.94636173406047 104.49769386997502 99.73231520977197 H 0.0 **** 0.06
12086 C 165.41789050733786 173.9884609899595 187.6999402558956 C 0.0 **** -0.24
12087 H 165.6139864708215 173.55330461620485 188.68018767299816 H 0.0 **** 0.06
12088 H 164.79725417984469 173.30815816321865 187.11692885723562 H 0.0 **** 0.06
12089 H 166.36180435185804 174.15508078817493 187.1805789295656 H 0.0 **** 0.06
12090 H 164.89783319174495 174.93949850096328 187.82290271210886 H 0.0 **** 0.06
12091 C 61.35572505187591 15.32308330599929 95.08131027054381 C 0.0 **** -0.24
12092 H 61.55420443425861 15.796846658804839 94.11989157707899 H 0.0 **** 0.06
12093 H 62.178462636574295 15.532168135919107 95.76598983866566 H 0.0 **** 0.06
12094 H 61.2633400848663 14.246253457630615 94.94291533039038 H 0.0 **** 0.06
12095 H 60.4281737070111 15.717638072857028 95.49662187610096 H 0.0 **** 0.06
12096 C 47.08390245208216 69.83378026051054 111.32080476428152 C 0.0 **** -0.24
12097 H 47.03072345513806 70.47617020982244 112.1992020590348 H 0.0 **** 0.06
12098 H 47.77498190167262 69.01300005503566 111.51161284019437 H 0.0 **** 0.06
12099 H 47.436703365867515 70.41458936601595 110.4679823898133 H 0.0 **** 0.06
12100 H 46.09447688040132 69.43310940758087 111.1032741679808 H 0.0 **** 0.06
12101 C 175.1740576384797 189.53645901415888 137.485019991774 C 0.0 **** -0.24
12102 H 175.9754736878436 190.27428967146705 137.4592342878202 H 0.0 **** 0.06
12103 H 175.33234207894006 188.85815010507315 138.32440475286316 H 0.0 **** 0.06
12104 H 175.1722030266733 188.96885604035822 136.5543250295742 H 0.0 **** 0.06
12105 H 174.2175575409545 190.04437263175453 137.60389378618086 H 0.0 **** 0.06
12106 C 2.0111270554635325 29.978736662667615 144.47116319471004 C 0.0 **** -0.24
12107 H 2.8295574216408 30.678114338397677 144.64152833826577 H 0.0 **** 0.06
12108 H 1.867964048138873 29.363107575635695 145.36082657229522 H 0.0 **** 0.06
12109 H 2.2503729463451236 29.33867638340331 143.62105499141492 H 0.0 **** 0.06
12110 H 1.0965994316081265 30.533821459357483 144.26194613217672 H 0.0 **** 0.06
12111 C 56.62473949127107 64.90864539668055 125.32460650923761 C 0.0 **** -0.24
12112 H 57.16487825321664 65.82815845319674 125.09785432873272 H 0.0 **** 0.06
12113 H 56.34586683781582 64.41316658674236 124.39330069030413 H 0.0 **** 0.06
12114 H 55.72584548545707 65.14497787717946 125.89353110452802 H 0.0 **** 0.06
12115 H 57.26287197851457 64.2482134837291 125.91078333861662 H 0.0 **** 0.06
12116 C 83.66481867575592 5.058339293184012 51.23923735463654 C 0.0 **** -0.24
12117 H 83.40543808462473 5.297002052186301 50.20785310211227 H 0.0 **** 0.06
12118 H 84.48041471377078 4.33513569566631 51.251041896641595 H 0.0 **** 0.06
12119 H 82.7957117140223 4.635457262465934 51.742925308277194 H 0.0 **** 0.06
12120 H 83.97673805117029 5.966273270579713 51.754238181328105 H 0.0 **** 0.06
12121 C 87.80022659303125 83.20240681235344 47.46876236910387 C 0.0 **** -0.24
12122 H 87.51779825907147 82.59011686095039 46.61340461061877 H 0.0 **** 0.06
12123 H 87.3369823042616 84.18567347495213 47.380195409416416 H 0.0 **** 0.06
12124 H 88.88474420698495 83.3120130362513 47.49542170789806 H 0.0 **** 0.06
12125 H 87.46067274207678 82.7221745868172 48.3866397470984 H 0.0 **** 0.06
12126 C 178.37909269188833 98.46254336300865 156.00058549130358 C 0.0 **** -0.24
12127 H 177.51754450972365 99.0101385914943 155.61885800702782 H 0.0 **** 0.06
12128 H 179.0612831344717 98.23994355874106 155.17940814462708 H 0.0 **** 0.06
12129 H 178.04359952811683 97.53153004720372 156.45724534325132 H 0.0 **** 0.06
12130 H 178.89345940548586 99.06854828484853 156.745955591069 H 0.0 **** 0.06
12131 C 163.1285909206704 157.50690339593194 148.9245107486422 C 0.0 **** -0.24
12132 H 162.87553787413094 157.9256270292314 147.95143761852242 H 0.0 **** 0.06
12133 H 163.440698750924 156.4682853015995 148.80355250619476 H 0.0 **** 0.06
12134 H 162.25610056636538 157.55022353442837 149.57637548025016 H 0.0 **** 0.06
12135 H 163.94198410429652 158.08148171124813 149.36768449764207 H 0.0 **** 0.06
12136 C 124.32960972622814 182.99944798851072 18.881897407076067 C 0.0 **** -0.24
12137 H 124.68648066407786 183.06604053664842 17.85360354252336 H 0.0 **** 0.06
12138 H 124.21981689863117 184.00211165474462 19.294107029160372 H 0.0 **** 0.06
12139 H 125.0473503922286 182.43645426977506 19.478573275610657 H 0.0 **** 0.06
12140 H 123.36507949963081 182.49120282507826 18.899072854218673 H 0.0 **** 0.06
12141 C 140.941388239422 116.95594058359646 150.6730037294509 C 0.0 **** -0.24
12142 H 141.12543664908267 117.21148900297158 151.71640770950148 H 0.0 **** 0.06
12143 H 141.88423208265843 116.95940959819455 150.12621937339287 H 0.0 **** 0.06
12144 H 140.26330650343897 117.68825093798813 150.23428924820564 H 0.0 **** 0.06
12145 H 140.4907646152013 115.96510580756737 150.61667011794125 H 0.0 **** 0.06
12146 C 63.041643395724066 12.960768195800085 29.932118093502822 C 0.0 **** -0.24
12147 H 63.037866644439404 11.924725913842678 30.270723774773614 H 0.0 **** 0.06
12148 H 64.05866905865098 13.35217604844621 29.971020493933224 H 0.0 **** 0.06
12149 H 62.396991927771495 13.5564459911688 30.578235827672984 H 0.0 **** 0.06
12150 H 62.67284796397854 13.008767308654853 28.906747559727734 H 0.0 **** 0.06
12151 C 181.96252378473827 162.82570506509097 115.35364504240727 C 0.0 **** -0.24
12152 H 181.42230507526574 163.72261115246224 115.65838086431688 H 0.0 **** 0.06
12153 H 181.25404023415112 162.08307071805342 114.98493106703188 H 0.0 **** 0.06
12154 H 182.5035709495815 162.41990633031338 116.20839063746928 H 0.0 **** 0.06
12155 H 182.66877319881883 163.07862896373925 114.56260777558077 H 0.0 **** 0.06
12156 C 176.68939818523006 8.713894385665029 195.93834787522601 C 0.0 **** -0.24
12157 H 176.09724836441342 8.418725933363689 196.80399551450859 H 0.0 **** 0.06
12158 H 176.57472427029995 9.785276727851787 195.76821118750803 H 0.0 **** 0.06
12159 H 176.34611106824644 8.167768634498877 195.05966118279707 H 0.0 **** 0.06
12160 H 177.73904457562048 8.48592743637063 196.12205741216025 H 0.0 **** 0.06
12161 C 81.89607300676883 181.22901072438017 191.43211482900517 C 0.0 **** -0.24
12162 H 81.88951338769843 180.19086457815666 191.76319822903952 H 0.0 **** 0.06
12163 H 81.72370876552225 181.26774965638367 190.356000722492 H 0.0 **** 0.06
12164 H 82.86321661940849 181.67680001561092 191.6612210736798 H 0.0 **** 0.06
12165 H 81.10989385309779 181.7803300570284 191.94671757576748 H 0.0 **** 0.06
12166 C 9.78645001600512 132.34479237754113 194.31942640060927 C 0.0 **** -0.24
12167 H 10.590773930967487 131.6470789325902 194.55322690832088 H 0.0 **** 0.06
12168 H 9.866996937171137 132.65703667060654 193.27802427562074 H 0.0 **** 0.06
12169 H 9.8617216572205 133.21696978284427 194.96849067025477 H 0.0 **** 0.06
12170 H 8.824644266507846 131.85562213533018 194.47837887650542 H 0.0 **** 0.06
12171 C 59.55824105225565 146.47489925897878 195.07972358097555 C 0.0 **** -0.24
12172 H 59.333892429017965 145.5584628210525 195.62667847833924 H 0.0 **** 0.06
12173 H 59.60048149274513 146.25916498731266 194.01223206044972 H 0.0 **** 0.06
12174 H 60.519170599661834 146.8675527509712 195.41068626888713 H 0.0 **** 0.06
12175 H 58.77924808856159 147.2122816372046 195.27182995623548 H 0.0 **** 0.06
12176 C 105.83824017028567 172.83060663435919 28.149518639533312 C 0.0 **** -0.24
12177 H 105.66681700357267 173.66760718722105 27.472738873095196 H 0.0 **** 0.06
12178 H 106.85687334406762 172.87641751149712 28.533911003489507 H 0.0 **** 0.06
12179 H 105.69357998918773 171.8933537293665 27.611889480003768 H 0.0 **** 0.06
12180 H 105.13386740259782 172.88563405167986 28.98011281867734 H 0.0 **** 0.06
12181 C 7.742478857689186 170.60700981113058 139.2531346086902 C 0.0 **** -0.24
12182 H 8.105325396578998 169.72976369682794 139.78844509750266 H 0.0 **** 0.06
12183 H 8.590738993792371 171.2137288143175 138.93330728842255 H 0.0 **** 0.06
12184 H 7.102354418413803 171.1945820201966 139.91093569950226 H 0.0 **** 0.06
12185 H 7.172612592851543 170.2892064699841 138.38027428268194 H 0.0 **** 0.06
12186 C 116.16021780465042 105.80112452603419 165.49968757003637 C 0.0 **** -0.24
12187 H 115.7135913943581 106.27461402770143 166.37474599763624 H 0.0 **** 0.06
12188 H 115.63735403949306 106.13227012745199 164.60230261289638 H 0.0 **** 0.06
12189 H 116.0775518637821 104.7183669773118 165.59035233960938 H 0.0 **** 0.06
12190 H 117.21135071784101 106.08210935864594 165.43301067150105 H 0.0 **** 0.06
12191 C 82.06870780757663 169.27708587067426 150.2333021945784 C 0.0 **** -0.24
12192 H 83.13937201770386 169.1805660729407 150.41335151872903 H 0.0 **** 0.06
12193 H 81.53731273813449 168.49994618494287 150.781389634349 H 0.0 **** 0.06
12194 H 81.86979141795956 169.17176247891285 149.1667629609738 H 0.0 **** 0.06
12195 H 81.73042686103318 170.25681006012962 150.57130693657882 H 0.0 **** 0.06
12196 C 123.42026620830273 57.69398372156695 8.258155826669054 C 0.0 **** -0.24
12197 H 123.81451469658231 57.52569300763298 9.259843415914226 H 0.0 **** 0.06
12198 H 124.23919339094365 57.93926857241934 7.581714181139496 H 0.0 **** 0.06
12199 H 122.70975873677654 58.52104173515045 8.28185995347166 H 0.0 **** 0.06
12200 H 122.91705944629288 56.79280493245932 7.909879506220975 H 0.0 **** 0.06
12201 C 120.24498516954526 144.162228149106 70.83895214129308 C 0.0 **** -0.24
12202 H 119.36042246926121 143.99078247121065 71.45277695542781 H 0.0 **** 0.06
12203 H 121.1317603429057 143.8308538475526 71.38037210096002 H 0.0 **** 0.06
12204 H 120.3311753070808 145.22597304541569 70.61520505533571 H 0.0 **** 0.06
12205 H 120.15577080798363 143.6011659525958 69.90802211206997 H 0.0 **** 0.06
12206 C 1.2272717996360996 61.992684678456726 146.80416158086607 C 0.0 **** -0.24
12207 H 1.0680303771926845 60.91770536190489 146.71629615690594 H 0.0 **** 0.06
12208 H 1.3552776200716323 62.25585912021921 147.85494626007397 H 0.0 **** 0.06
12209 H 0.3652973053470987 62.52186856874812 146.3994616475589 H 0.0 **** 0.06
12210 H 2.121076457869151 62.274098550021336 146.24772817117213 H 0.0 **** 0.06
12211 C 26.43587070569903 93.5793251643205 163.74309295871095 C 0.0 **** -0.24
12212 H 26.869885762696583 92.70651286807487 164.23063813933652 H 0.0 **** 0.06
12213 H 27.046146594964384 93.85476383658886 162.8828153493577 H 0.0 **** 0.06
12214 H 26.404977964726243 94.41022227511408 164.4480626864417 H 0.0 **** 0.06
12215 H 25.42476461357505 93.34544122732976 163.4124732090393 H 0.0 **** 0.06
12216 C 92.17530855641166 52.929254998996726 80.89037826548136 C 0.0 **** -0.24
12217 H 92.80742772984848 52.80771404252897 80.01101496255723 H 0.0 **** 0.06
12218 H 92.69926266825672 53.52971252564731 81.6336396710472 H 0.0 **** 0.06
12219 H 91.9449659555811 51.94996916226327 81.3100784213176 H 0.0 **** 0.06
12220 H 91.2486679768686 53.42916572730397 80.60579925380603 H 0.0 **** 0.06
12221 C 75.42136459830013 76.13655435758677 176.74645517858926 C 0.0 **** -0.24
12222 H 76.00815531640703 76.61982789916112 177.52786098064027 H 0.0 **** 0.06
12223 H 75.2954261186856 76.82429061067666 175.90991705067887 H 0.0 **** 0.06
12224 H 74.4432877906756 75.86343458347399 177.1427619205445 H 0.0 **** 0.06
12225 H 75.93858531679808 75.23997446060451 176.40581330792745 H 0.0 **** 0.06
12226 C 164.94401516033895 100.05552874097089 140.86585814660245 C 0.0 **** -0.24
12227 H 164.95940427671732 100.51546890939056 141.8539861244266 H 0.0 **** 0.06
12228 H 164.85409794245874 100.83089186840161 140.1052264413209 H 0.0 **** 0.06
12229 H 164.0947443769798 99.37541513600334 140.79516643164774 H 0.0 **** 0.06
12230 H 165.8672599895541 99.49840485936824 140.71002931268652 H 0.0 **** 0.06
12231 C 131.73040799273107 132.71896393379234 114.0917130139756 C 0.0 **** -0.24
12232 H 131.8869143435141 133.1826679918413 113.11679351385288 H 0.0 **** 0.06
12233 H 132.66125106437497 132.74401436872688 114.65904744150549 H 0.0 **** 0.06
12234 H 131.41582854558334 131.68411515949276 113.95390704699156 H 0.0 **** 0.06
12235 H 130.9584155760271 133.26549768664955 114.63361083892343 H 0.0 **** 0.06
12236 C 185.8694721779408 175.65429403878062 115.46508533205116 C 0.0 **** -0.24
12237 H 185.63869422309335 174.96194196103045 114.6556096912164 H 0.0 **** 0.06
12238 H 186.27688000817153 176.57620238005717 115.04856092664963 H 0.0 **** 0.06
12239 H 186.60307559957752 175.20172579340928 116.13241934904059 H 0.0 **** 0.06
12240 H 184.96000632323643 175.87756209940176 116.02166675964878 H 0.0 **** 0.06
12241 C 185.76121812618598 63.407890529494054 156.39726109457266 C 0.0 **** -0.24
12242 H 185.3849054206624 64.40076825739298 156.14860013615083 H 0.0 **** 0.06
12243 H 185.16564116890055 62.9872663770645 157.20702777492303 H 0.0 **** 0.06
12244 H 186.802405586592 63.483803115918974 156.71149769993576 H 0.0 **** 0.06
12245 H 185.69225409931283 62.76330190489017 155.5208746759658 H 0.0 **** 0.06
12246 C 73.28304981678309 193.85397108704174 161.4135191416098 C 0.0 **** -0.24
12247 H 73.95646711894472 193.25932870229263 162.03114788409735 H 0.0 **** 0.06
12248 H 73.23008762535898 194.868824568964 161.80711803531688 H 0.0 **** 0.06
12249 H 72.28886057142569 193.40580822847696 161.42665336245835 H 0.0 **** 0.06
12250 H 73.65626314944734 193.87954498582573 160.3894305325174 H 0.0 **** 0.06
12251 C 39.92873484171287 154.4905236530539 100.93928351535087 C 0.0 **** -0.24
12252 H 40.970771613911495 154.67289537191948 101.20243862027914 H 0.0 **** 0.06
12253 H 39.290005223430626 154.76178847054229 101.78090195284082 H 0.0 **** 0.06
12254 H 39.79303467620417 153.434941461447 100.70472355458253 H 0.0 **** 0.06
12255 H 39.66196530758032 155.09320616274374 100.07100792853063 H 0.0 **** 0.06
12256 C 148.24360326700628 60.32462077727337 104.0050284535277 C 0.0 **** -0.24
12257 H 147.22751952950537 60.11977136361213 103.66748846595715 H 0.0 **** 0.06
12258 H 148.65510333523792 59.43477758987672 104.48144579006413 H 0.0 **** 0.06
12259 H 148.2302492343651 61.146425959649264 104.72054685408534 H 0.0 **** 0.06
12260 H 148.86188252315358 60.59783467995322 103.14929974033797 H 0.0 **** 0.06
12261 C 31.743911252868145 92.17036639752868 135.52219967078236 C 0.0 **** -0.24
12262 H 31.40576107391614 91.45422890042016 136.2712418775459 H 0.0 **** 0.06
12263 H 31.67016581334819 91.72108327462797 134.53137022624543 H 0.0 **** 0.06
12264 H 32.780908928970334 92.44244793946575 135.72086560401198 H 0.0 **** 0.06
12265 H 31.120178035897638 93.06320280129168 135.56438627824275 H 0.0 **** 0.06
12266 C 96.74709464780096 151.9903357274015 146.62165711632284 C 0.0 **** -0.24
12267 H 95.74523448638601 151.79275685627874 147.00331205982067 H 0.0 **** 0.06
12268 H 97.145876029719 152.88658209914698 147.0953938605417 H 0.0 **** 0.06
12269 H 96.70020076054672 152.13900554744075 145.54208082596844 H 0.0 **** 0.06
12270 H 97.39445885209565 151.1419334556218 146.84337958464963 H 0.0 **** 0.06
12271 C 51.70893024244333 148.88071727576045 88.41857097651405 C 0.0 **** -0.24
12272 H 52.61735415938536 149.1495292451092 88.95692752911188 H 0.0 **** 0.06
12273 H 51.942889138690376 148.72859280683795 87.36513989086708 H 0.0 **** 0.06
12274 H 50.97771311770367 149.68323607350956 88.51704830788114 H 0.0 **** 0.06
12275 H 51.29817512363928 147.96106294799526 88.83644518457297 H 0.0 **** 0.06
12276 C 91.37355991177509 28.69660878217428 136.3251641465191 C 0.0 **** -0.24
12277 H 91.60107215552614 27.868621947200324 135.65326558508315 H 0.0 **** 0.06
12278 H 90.98549453574896 29.536504996928613 135.7488315200086 H 0.0 **** 0.06
12279 H 92.28088995653536 29.001321209332502 136.84705897973004 H 0.0 **** 0.06
12280 H 90.62596470040376 28.377918268689882 137.0517262184319 H 0.0 **** 0.06
12281 C 178.1320589178962 120.22562773706653 91.87692172540659 C 0.0 **** -0.24
12282 H 178.1131577660764 120.21685474119442 90.78684582151132 H 0.0 **** 0.06
12283 H 177.6277130853246 119.33623395810218 92.25538794674293 H 0.0 **** 0.06
12284 H 177.6210852319877 121.11600906566167 92.24156351809671 H 0.0 **** 0.06
12285 H 179.16627986905837 120.2324227488478 92.22188483409425 H 0.0 **** 0.06
12286 C 155.30699667757574 140.9098743547482 50.349010905878856 C 0.0 **** -0.24
12287 H 154.43036849982883 141.55580785212481 50.32284603810888 H 0.0 **** 0.06
12288 H 155.22819667393426 140.22485487368684 51.1942597398525 H 0.0 **** 0.06
12289 H 156.2035967986023 141.51994118216302 50.4577140190064 H 0.0 **** 0.06
12290 H 155.36534686569405 140.3388376029953 49.42255369708462 H 0.0 **** 0.06
12291 C 186.24267450857593 64.49027147216698 19.065831001785796 C 0.0 **** -0.24
12292 H 185.4499389464641 65.05975604503259 19.55044354921938 H 0.0 **** 0.06
12293 H 186.22454589353293 64.68157748306427 17.993160486725216 H 0.0 **** 0.06
12294 H 186.090452200906 63.4267918516869 19.249172598609263 H 0.0 **** 0.06
12295 H 187.20773584614136 64.79449492639405 19.472725848511047 H 0.0 **** 0.06
12296 C 6.004916566714144 1.0142813224543943 171.3250080480561 C 0.0 **** -0.24
12297 H 5.942553511448466 1.3270379955179123 170.28301775010638 H 0.0 **** 0.06
12298 H 5.002884919477765 0.8149907543096617 171.70538094091305 H 0.0 **** 0.06
12299 H 6.465934878123676 1.8066828278871299 171.91459404851082 H 0.0 **** 0.06
12300 H 6.607261939904788 0.1093815855864193 171.39702313585923 H 0.0 **** 0.06
12301 C 1.9915003749018751 108.83171585125683 111.42341227395411 C 0.0 **** -0.24
12302 H 2.4163169782584646 109.62671162236359 112.03672970523877 H 0.0 **** 0.06
12303 H 0.9147904679373937 108.97756853475335 111.33337635964489 H 0.0 **** 0.06
12304 H 2.1901936160018067 107.86746484947878 111.89000380763181 H 0.0 **** 0.06
12305 H 2.4458094847286134 108.85671611138957 110.43205011046189 H 0.0 **** 0.06
12306 C 19.937921996077023 37.310488931097694 188.33301407171393 C 0.0 **** -0.24
12307 H 18.892918539394373 37.18867075609717 188.61908889278178 H 0.0 **** 0.06
12308 H 20.5636085520203 36.67939579862528 188.96437488786358 H 0.0 **** 0.06
12309 H 20.228760407287098 38.353738390900446 188.45941930703395 H 0.0 **** 0.06
12310 H 20.065279953527806 37.02143928193824 187.2894634271763 H 0.0 **** 0.06
12311 C 28.203460002203826 15.547371630433531 108.63113092174976 C 0.0 **** -0.24
12312 H 27.367076732277212 16.224512455856 108.80522864254121 H 0.0 **** 0.06
12313 H 28.61060921332279 15.722167352937646 107.63522999370068 H 0.0 **** 0.06
12314 H 27.85774472580144 14.515993284387093 108.70702135023663 H 0.0 **** 0.06
12315 H 28.9774419734795 15.726825750632642 109.37807525198232 H 0.0 **** 0.06
12316 C 28.941677096790556 173.65406596688385 75.2256239612673 C 0.0 **** -0.24
12317 H 27.91867979479656 173.88394072275094 75.52377962955393 H 0.0 **** 0.06
12318 H 29.57840652797674 174.51888046444566 75.4137468251858 H 0.0 **** 0.06
12319 H 28.96411123980701 173.41104087434638 74.16268876854882 H 0.0 **** 0.06
12320 H 29.305107501671387 172.8031883416449 75.80022664992555 H 0.0 **** 0.06
12321 C 96.77226711705998 160.7230170429484 182.61597128446707 C 0.0 **** -0.24
12322 H 95.77134498876276 160.31057691746912 182.4897503924163 H 0.0 **** 0.06
12323 H 96.88581853091193 161.09444296408412 183.6347207908786 H 0.0 **** 0.06
12324 H 96.91898718205582 161.5416314972639 181.91176728822708 H 0.0 **** 0.06
12325 H 97.51199577257563 159.94505974619926 182.42749677838364 H 0.0 **** 0.06
12326 C 187.0408837999795 55.684891294803606 98.52897634637634 C 0.0 **** -0.24
12327 H 187.15200191875306 55.756300812745394 99.61096577689082 H 0.0 **** 0.06
12328 H 186.97946962094312 54.6363960521048 98.23871492788535 H 0.0 **** 0.06
12329 H 187.9009477974579 56.14675954148714 98.04456400516213 H 0.0 **** 0.06
12330 H 186.13015546566115 56.20076680690198 98.22246359017075 H 0.0 **** 0.06
12331 C 128.10340159075437 197.51259527113365 86.98563128946077 C 0.0 **** -0.24
12332 H 128.19707342884294 196.86598028361763 86.11198240620166 H 0.0 **** 0.06
12333 H 127.7667397565794 198.50072256866844 86.67186555293796 H 0.0 **** 0.06
12334 H 129.07260799016976 197.59806945886345 87.4775050657529 H 0.0 **** 0.06
12335 H 127.38053504491236 197.08427533561115 87.67817198727289 H 0.0 **** 0.06
12336 C 133.86236091268646 186.46936759646064 160.06897154877402 C 0.0 **** -0.24
12337 H 133.67588421662407 186.95928129977335 161.0242708065869 H 0.0 **** 0.06
12338 H 134.85572053261367 186.7393755066538 159.70975561195053 H 0.0 **** 0.06
12339 H 133.1141910985962 186.78947174438088 159.3446705624799 H 0.0 **** 0.06
12340 H 133.80399947322036 185.3880485264704 160.19764057223537 H 0.0 **** 0.06
12341 C 52.73199946185048 109.28706931576272 30.059310495153724 C 0.0 **** -0.24
12342 H 52.68751269229449 108.36970274822673 30.64711506388852 H 0.0 **** 0.06
12343 H 53.51983703206761 109.93125560368964 30.452427166365325 H 0.0 **** 0.06
12344 H 51.77499976664342 109.80461973825254 30.121179822131495 H 0.0 **** 0.06
12345 H 52.947232458047836 109.0419051553036 29.01981544953543 H 0.0 **** 0.06
12346 C 13.243149205642595 95.24358760155911 56.97930172081442 C 0.0 **** -0.24
12347 H 12.229008203409506 95.0982477880953 57.352392947846624 H 0.0 **** 0.06
12348 H 13.782299394970863 94.29694055350646 57.01353795589387 H 0.0 **** 0.06
12349 H 13.756451537239286 95.97729086910053 57.60023480723896 H 0.0 **** 0.06
12350 H 13.202811540160639 95.6022139296478 55.95015948605541 H 0.0 **** 0.06
12351 C 162.803470435339 160.27761141751475 162.15550364327427 C 0.0 **** -0.24
12352 H 163.4907477417002 161.09584277188245 162.37288363071053 H 0.0 **** 0.06
12353 H 163.37201985753558 159.38513825788652 161.89524438215273 H 0.0 **** 0.06
12354 H 162.1598781575611 160.55670880460764 161.32069628199073 H 0.0 **** 0.06
12355 H 162.19149677854105 160.07622812039799 163.03455977741675 H 0.0 **** 0.06
12356 C 71.16212610482631 132.3961563033514 9.462947891101578 C 0.0 **** -0.24
12357 H 71.83501555365856 132.7144714526691 10.260114103140296 H 0.0 **** 0.06
12358 H 71.36288763568142 131.3537264567608 9.214185914274196 H 0.0 **** 0.06
12359 H 71.32315524205045 133.01769040912686 8.581898140574708 H 0.0 **** 0.06
12360 H 70.12987031887336 132.49827539616405 9.796975365642993 H 0.0 **** 0.06
12361 C 177.7087579429422 127.99880344982765 163.67249580864103 C 0.0 **** -0.24
12362 H 177.34944674709195 126.97584168626341 163.78987299448147 H 0.0 **** 0.06
12363 H 177.85814642636942 128.44537383244005 164.6557519635042 H 0.0 **** 0.06
12364 H 176.9733820040533 128.57952772918415 163.11618994935938 H 0.0 **** 0.06
12365 H 178.6534398245572 127.99174333380097 163.12925555936278 H 0.0 **** 0.06
12366 C 186.80496971035817 54.745052606810575 112.04646850617667 C 0.0 **** -0.24
12367 H 185.93241975031538 54.659669702833526 111.39712032800651 H 0.0 **** 0.06
12368 H 187.6763341441498 55.014402463268524 111.44879018043929 H 0.0 **** 0.06
12369 H 186.98341638715505 53.79121692003332 112.5413219333901 H 0.0 **** 0.06
12370 H 186.62488460153978 55.516108621061264 112.79508966767591 H 0.0 **** 0.06
12371 C 51.721759706060425 95.72392874357638 140.13455180365165 C 0.0 **** -0.24
12372 H 51.325268084736905 95.15014207500147 139.2975297533942 H 0.0 **** 0.06
12373 H 51.961013305865094 95.04890918877342 140.9573446308051 H 0.0 **** 0.06
12374 H 50.97625143842805 96.44774630939705 140.46439910938278 H 0.0 **** 0.06
12375 H 52.62379955597439 96.24896992177918 139.82051430637034 H 0.0 **** 0.06
12376 C 22.03982600608782 15.572092230154482 110.49663827021311 C 0.0 **** -0.24
12377 H 21.60402197648773 16.20098638148538 111.27288995254608 H 0.0 **** 0.06
12378 H 22.904584418065156 15.043498134891934 110.90016509195598 H 0.0 **** 0.06
12379 H 22.353009212250385 16.194662825226743 109.65872311407125 H 0.0 **** 0.06
12380 H 21.29895797456254 14.849471583463313 110.15534568141885 H 0.0 **** 0.06
12381 C 140.54290526384233 113.32161232553909 111.8481418266501 C 0.0 **** -0.24
12382 H 139.92750793014875 112.53057935080034 112.27707031009155 H 0.0 **** 0.06
12383 H 141.35444011997933 113.56347385505177 112.53410527318351 H 0.0 **** 0.06
12384 H 139.9313420873496 114.20750576529485 111.68082491479302 H 0.0 **** 0.06
12385 H 140.95860382679373 112.9826628932264 110.89857576955606 H 0.0 **** 0.06
12386 C 54.675574080024404 34.89337807027013 151.89562044900865 C 0.0 **** -0.24
12387 H 54.66451381402425 33.8885305824067 152.31756342395946 H 0.0 **** 0.06
12388 H 55.06455999880009 35.5932227570583 152.63512301733243 H 0.0 **** 0.06
12389 H 53.6617736585556 35.18218479015593 151.61755737102493 H 0.0 **** 0.06
12390 H 55.312875150829825 34.90852742215594 151.0108704574348 H 0.0 **** 0.06
12391 C 52.666431621576606 95.14322469656474 44.44668680896535 C 0.0 **** -0.24
12392 H 52.757900977195504 94.07240095028854 44.26009479027752 H 0.0 **** 0.06
12393 H 53.40402615711017 95.44561384574183 45.19018246435786 H 0.0 **** 0.06
12394 H 51.66459982590874 95.3620724675769 44.81644131195759 H 0.0 **** 0.06
12395 H 52.83880605847082 95.68883111235962 43.519027727401436 H 0.0 **** 0.06
12396 C 196.6958958546437 104.35534821297475 99.98251116856818 C 0.0 **** -0.24
12397 H 196.12335224390642 104.47800679719938 100.9021477153849 H 0.0 **** 0.06
12398 H 196.78468360775577 105.31902323161378 99.47896581897226 H 0.0 **** 0.06
12399 H 196.18548846253435 103.64861551019271 99.32887989317089 H 0.0 **** 0.06
12400 H 197.68958591502178 103.97684100741884 100.2213082228651 H 0.0 **** 0.06
12401 C 158.04019116439346 111.06023957817911 170.13419815511023 C 0.0 **** -0.24
12402 H 156.98210209778492 111.30140716604876 170.03433627531277 H 0.0 **** 0.06
12403 H 158.585651432187 111.45542116411173 169.27537200193598 H 0.0 **** 0.06
12404 H 158.16412625120176 109.97851955052687 170.17690109486244 H 0.0 **** 0.06
12405 H 158.4296744313953 111.50815550815958 171.04880506657472 H 0.0 **** 0.06
12406 C 179.7324560282309 142.86836035758344 152.59092362696882 C 0.0 **** -0.24
12407 H 179.51767525022282 143.93700663286276 152.59072667893696 H 0.0 **** 0.06
12408 H 178.9151906685254 142.33442434669925 153.0768499308056 H 0.0 **** 0.06
12409 H 180.65971670199244 142.68435934211888 153.1331430864225 H 0.0 **** 0.06
12410 H 179.83544474254364 142.51887811056656 151.56349082054783 H 0.0 **** 0.06
12411 C 10.81812656036226 177.7142224776254 88.97084724331518 C 0.0 **** -0.24
12412 H 9.72846071337355 177.69992203477756 88.97849652229903 H 0.0 **** 0.06
12413 H 11.195091675795027 176.6926791619471 89.02012439654715 H 0.0 **** 0.06
12414 H 11.179122327375978 178.27695527935805 89.83178483367462 H 0.0 **** 0.06
12415 H 11.168742011365993 178.187629101786 88.05429684393835 H 0.0 **** 0.06
12416 C 56.08575813656326 8.16656966070709 163.98247719348495 C 0.0 **** -0.24
12417 H 55.12078923665314 7.908472948803102 164.41846089343747 H 0.0 **** 0.06
12418 H 55.93116180007907 8.756669903853009 163.07872480755327 H 0.0 **** 0.06
12419 H 56.62656538379812 7.253169571811945 163.732516184228 H 0.0 **** 0.06
12420 H 56.665093644772156 8.74643254321326 164.70076758216788 H 0.0 **** 0.06
12421 C 186.54604053304533 22.63947228419572 21.927916006118153 C 0.0 **** -0.24
12422 H 185.61771878851812 22.136879145001956 21.65944902152694 H 0.0 **** 0.06
12423 H 187.04633213421545 22.985765374729652 21.02269276027397 H 0.0 **** 0.06
12424 H 187.19587826271564 21.943568500887594 22.457673981634827 H 0.0 **** 0.06
12425 H 186.32564481036655 23.492665900902352 22.570108405598006 H 0.0 **** 0.06
12426 C 82.11318870266683 133.1713876098402 110.54110342623258 C 0.0 **** -0.24
12427 H 82.8446611686478 133.96732996638596 110.40707937949387 H 0.0 **** 0.06
12428 H 81.7998869768538 133.1379688026823 111.58490508808106 H 0.0 **** 0.06
12429 H 82.56033066055349 132.2166087966934 110.26401648245397 H 0.0 **** 0.06
12430 H 81.24703623180696 133.36436503475727 109.90708109062422 H 0.0 **** 0.06
12431 C 138.6421537624503 32.80742195932416 0.41983852448328207 C 0.0 **** -0.24
12432 H 139.6017031718279 32.949259220666164 0.91710184009861 H 0.0 **** 0.06
12433 H 138.80699108478578 32.61609835720064 -0.6412960829519534 H 0.0 **** 0.06
12434 H 138.03722932369737 33.70704029188366 0.5366759271088597 H 0.0 **** 0.06
12435 H 138.1236897219386 31.95928458889354 0.8667140286618746 H 0.0 **** 0.06
12436 C 102.24424880424351 16.962093050142528 74.72526655133316 C 0.0 **** -0.24
12437 H 101.39821921279236 16.92353554631279 75.41186828741978 H 0.0 **** 0.06
12438 H 101.87884603242674 17.067853028994023 73.70435553711822 H 0.0 **** 0.06
12439 H 102.82390744005647 16.042880098384046 74.81119153439927 H 0.0 **** 0.06
12440 H 102.87660109908074 17.8140555586034 74.97581025995304 H 0.0 **** 0.06
12441 C 1.3676063265636742 115.89828650954504 67.96959608965767 C 0.0 **** -0.24
12442 H 0.6226767135320372 115.12187416468646 68.14392458773989 H 0.0 **** 0.06
12443 H 0.9806484463629701 116.85709518631072 68.31578132876382 H 0.0 **** 0.06
12444 H 1.5865920201785144 115.9581828280823 66.90342284720157 H 0.0 **** 0.06
12445 H 2.279927006182305 115.65570799145632 68.5144936232374 H 0.0 **** 0.06
12446 C 169.04581099507868 133.80703446879738 37.33981895392978 C 0.0 **** -0.24
12447 H 168.00664010391685 133.6761347240864 37.03883425775234 H 0.0 **** 0.06
12448 H 169.6310747695393 134.14853003954408 36.486196809314066 H 0.0 **** 0.06
12449 H 169.44258441950532 132.85576822258383 37.695663132465214 H 0.0 **** 0.06
12450 H 169.10235499734534 134.54641947186064 38.13858504693442 H 0.0 **** 0.06
12451 C 124.523850030841 100.39545691097325 144.5716711481827 C 0.0 **** -0.24
12452 H 124.7332268941143 99.4888570321437 145.14035620525172 H 0.0 **** 0.06
12453 H 123.73772759565907 100.96235476172791 145.069236220074 H 0.0 **** 0.06
12454 H 124.19987232665841 100.12706065017068 143.5665574440037 H 0.0 **** 0.06
12455 H 125.42719078461371 101.00235298753944 144.5121790268801 H 0.0 **** 0.06
12456 C 63.43728061450585 88.17637359699853 58.582487545005236 C 0.0 **** -0.24
12457 H 62.42121205135069 88.47849544726122 58.8337000373881 H 0.0 **** 0.06
12458 H 63.44231700574326 87.69815719269172 57.6026970567911 H 0.0 **** 0.06
12459 H 63.803042583127436 87.47354188837403 59.331890961850306 H 0.0 **** 0.06
12460 H 64.0831036274374 89.0547202404806 58.56282766521292 H 0.0 **** 0.06
12461 C 56.776709473662606 190.3060737462697 138.55841924220402 C 0.0 **** -0.24
12462 H 56.966415940100944 190.4997600023289 137.50296542520755 H 0.0 **** 0.06
12463 H 57.39057037055767 189.46919003142835 138.89090852291696 H 0.0 **** 0.06
12464 H 55.72352575238517 190.06354087149 138.69919044110048 H 0.0 **** 0.06
12465 H 57.02598289206742 191.1935017719488 139.14059529383806 H 0.0 **** 0.06
12466 C 24.604871231589627 149.67011512437205 25.955937849022035 C 0.0 **** -0.24
12467 H 24.723458704017347 150.6544711655943 25.503871634519214 H 0.0 **** 0.06
12468 H 24.132870371453592 148.99624244445187 25.239749662411327 H 0.0 **** 0.06
12469 H 23.980245831341733 149.75147747918595 26.845474221424354 H 0.0 **** 0.06
12470 H 25.582965506975142 149.27740464681534 26.23415674807825 H 0.0 **** 0.06
12471 C 188.88012667540568 116.18810702522194 153.6347922427103 C 0.0 **** -0.24
12472 H 188.1328164368016 115.9006279751693 152.8957767711524 H 0.0 **** 0.06
12473 H 188.39317963944046 116.69951989436618 154.46511937330683 H 0.0 **** 0.06
12474 H 189.60930690566389 116.85490179073332 153.17345978406485 H 0.0 **** 0.06
12475 H 189.38744404807932 115.29609449667328 154.00365866382356 H 0.0 **** 0.06
12476 C 9.591111009137187 197.50637802269486 161.50360233623803 C 0.0 **** -0.24
12477 H 9.736942266755122 197.51913529119756 160.42370735618738 H 0.0 **** 0.06
12478 H 10.411075944209436 196.96422731214525 161.97464139578642 H 0.0 **** 0.06
12479 H 8.647170330944185 197.01251044477846 161.7371371802921 H 0.0 **** 0.06
12480 H 9.566816067949908 198.52959323019252 161.87914073351436 H 0.0 **** 0.06
12481 C 131.91470367839645 17.898398246186588 144.78996491303099 C 0.0 **** -0.24
12482 H 131.145624912493 17.431368060024823 145.40478466595576 H 0.0 **** 0.06
12483 H 131.44660822233314 18.566097861728394 144.06608124285827 H 0.0 **** 0.06
12484 H 132.4761343564876 17.126315994938068 144.26259758177258 H 0.0 **** 0.06
12485 H 132.5915560923731 18.46859941833506 145.42584627345332 H 0.0 **** 0.06
12486 C 130.5263570685789 101.07958856844229 87.24474063195223 C 0.0 **** -0.24
12487 H 131.1838173319485 101.34503211877674 86.4161361232172 H 0.0 **** 0.06
12488 H 130.89652868488494 101.53749158837147 88.16237754019431 H 0.0 **** 0.06
12489 H 130.5093033685995 99.9963915197309 87.36111067407023 H 0.0 **** 0.06
12490 H 129.51873089103668 101.43895091527355 87.03912000380467 H 0.0 **** 0.06
12491 C 33.17929168534482 149.4854918454528 63.50833455170638 C 0.0 **** -0.24
12492 H 32.33132123813664 149.84294546036057 64.09207139721443 H 0.0 **** 0.06
12493 H 33.442555432488916 148.47685593533782 63.83041611291378 H 0.0 **** 0.06
12494 H 34.03034006550797 150.14874360053716 63.658898223911876 H 0.0 **** 0.06
12495 H 32.91227041626834 149.4710966744484 62.45159281145375 H 0.0 **** 0.06
12496 C 157.8990785044824 131.1447230243724 64.16746112526447 C 0.0 **** -0.24
12497 H 156.87595571199404 131.5191978177011 64.12821736521215 H 0.0 **** 0.06
12498 H 158.48069380367025 131.59187487832514 63.36111098264789 H 0.0 **** 0.06
12499 H 157.89344010358428 130.0601079981498 64.05303138168077 H 0.0 **** 0.06
12500 H 158.34499582447373 131.40646450901056 65.12651732824686 H 0.0 **** 0.06
12501 C 125.95081710468193 186.43236226689135 175.25663776590986 C 0.0 **** -0.24
12502 H 126.60590189159123 186.00841904258107 174.49558602915124 H 0.0 **** 0.06
12503 H 126.09607041404104 187.51209945484266 175.29953039767867 H 0.0 **** 0.06
12504 H 126.18993119245098 185.99457725419177 176.22624667512906 H 0.0 **** 0.06
12505 H 124.9132236742065 186.21445136585265 175.00642712651853 H 0.0 **** 0.06
12506 C 186.2947695837727 135.53838035646828 36.20414755001951 C 0.0 **** -0.24
12507 H 186.27959636670815 136.29056937959558 35.41556329670141 H 0.0 **** 0.06
12508 H 186.03522033209802 136.00437829827132 37.15441160488842 H 0.0 **** 0.06
12509 H 187.29255112614752 135.10337930313958 36.271895519249426 H 0.0 **** 0.06
12510 H 185.57281087572738 134.75573915253426 35.97314098995855 H 0.0 **** 0.06
12511 C 68.15673085318758 8.843544051946822 136.49345815421555 C 0.0 **** -0.24
12512 H 67.4049663971602 9.608706144322412 136.29766776668208 H 0.0 **** 0.06
12513 H 69.00661385141184 9.293432099487745 137.00655786530683 H 0.0 **** 0.06
12514 H 68.48912624574142 8.412539431044536 135.54872379121142 H 0.0 **** 0.06
12515 H 67.72541856248803 8.062365817311388 137.11861568165443 H 0.0 **** 0.06
12516 C 192.12269031289446 109.0042169412128 188.99696676842808 C 0.0 **** -0.24
12517 H 193.18670808528623 109.23260445278879 189.05880532663923 H 0.0 **** 0.06
12518 H 191.7691642787654 109.19179542028951 187.9824676963625 H 0.0 **** 0.06
12519 H 191.57470662860214 109.63605967434796 189.695541254101 H 0.0 **** 0.06
12520 H 191.96051988484868 107.95735171010085 189.2500548619731 H 0.0 **** 0.06
12521 C 110.59908168669796 124.2472199318822 190.95873815903968 C 0.0 **** -0.24
12522 H 111.0791657465216 124.35303082822685 189.98590465241665 H 0.0 **** 0.06
12523 H 109.63412072807259 123.75612653030223 190.83550549795697 H 0.0 **** 0.06
12524 H 110.45191228738196 125.23316184259389 191.39960934097363 H 0.0 **** 0.06
12525 H 111.23239553449608 123.64835375900017 191.61284789628186 H 0.0 **** 0.06
12526 C 69.65561345288467 29.289400215952426 179.60467431945057 C 0.0 **** -0.24
12527 H 70.44866466997789 29.63102140328577 178.9386447118801 H 0.0 **** 0.06
12528 H 69.06769030549282 28.51986364508126 179.1049358779931 H 0.0 **** 0.06
12529 H 69.01187662391703 30.12888448909041 179.86289841395734 H 0.0 **** 0.06
12530 H 70.09702247064448 28.87698610354019 180.51288486628968 H 0.0 **** 0.06
12531 C 45.854033929402235 118.1336484761922 81.08167462786244 C 0.0 **** -0.24
12532 H 46.40273296512699 119.00277395834854 81.44335118030025 H 0.0 **** 0.06
12533 H 46.49117430147379 117.5561439305826 80.41089869175664 H 0.0 **** 0.06
12534 H 44.96406821094277 118.46277511109574 80.54548123419977 H 0.0 **** 0.06
12535 H 45.56010063341448 117.51322527423432 81.9280303097826 H 0.0 **** 0.06
12536 C 170.7813318299759 9.745389814600145 133.87187675663753 C 0.0 **** -0.24
12537 H 171.8696097388029 9.695067685972788 133.8376195262092 H 0.0 **** 0.06
12538 H 170.37653849598644 8.744868796521473 134.02615813741593 H 0.0 **** 0.06
12539 H 170.40653667736663 10.148566892255559 132.93141968341402 H 0.0 **** 0.06
12540 H 170.47339063637824 10.393090934869804 134.6938714061765 H 0.0 **** 0.06
12541 C 153.3251487922941 168.24564415035763 35.13383471270424 C 0.0 **** -0.24
12542 H 153.0068440425342 167.38340860498445 34.546932116756466 H 0.0 **** 0.06
12543 H 152.9281644077964 169.15583384579472 34.68463008988388 H 0.0 **** 0.06
12544 H 154.41349123829175 168.29224873423126 35.149784311033955 H 0.0 **** 0.06
12545 H 152.95005467941007 168.1487887728066 36.15274301469353 H 0.0 **** 0.06
12546 C 17.320436140692323 70.2475926967635 193.94630026068123 C 0.0 **** -0.24
12547 H 17.225914205471156 69.39200344759521 193.27769924327262 H 0.0 **** 0.06
12548 H 16.653331293957308 71.04293425091846 193.61353213872226 H 0.0 **** 0.06
12549 H 18.349401256865235 70.60598536092205 193.93480443627007 H 0.0 **** 0.06
12550 H 17.05055322595524 69.9478589424581 194.95919787781446 H 0.0 **** 0.06
12551 C 32.16158703779712 0.548847776775375 44.44252988263878 C 0.0 **** -0.24
12552 H 31.135966769885613 0.2298915872755174 44.255188720416385 H 0.0 **** 0.06
12553 H 32.32852833859687 1.5227452441958746 43.981998651818174 H 0.0 **** 0.06
12554 H 32.851305743517855 -0.17950429146546298 44.016245880817394 H 0.0 **** 0.06
12555 H 32.327966634472745 0.6208153227663615 45.517193633377246 H 0.0 **** 0.06
12556 C 57.2281329173308 90.72178525780683 114.34280825043072 C 0.0 **** -0.24
12557 H 56.17062428709886 90.4707790925008 114.26873358210412 H 0.0 **** 0.06
12558 H 57.383356598538924 91.40001988270436 115.18149059277982 H 0.0 **** 0.06
12559 H 57.551444833905265 91.20502617346153 113.42011689755077 H 0.0 **** 0.06
12560 H 57.80759383247802 89.81149275619151 114.49849801703147 H 0.0 **** 0.06
12561 C 25.563560308572164 30.56498143591091 196.14481377280714 C 0.0 **** -0.24
12562 H 24.514651602427406 30.73293281531471 195.8972686716432 H 0.0 **** 0.06
12563 H 26.19328637455321 30.97931903724151 195.35664618582302 H 0.0 **** 0.06
12564 H 25.748031800765133 29.494333511674796 196.23287041679308 H 0.0 **** 0.06
12565 H 25.79563088727214 31.054004612039307 197.0905760306223 H 0.0 **** 0.06
12566 C 47.967051924448924 93.81813403048389 8.633081481913223 C 0.0 **** -0.24
12567 H 48.8266381571473 94.48144183800144 8.724004099662494 H 0.0 **** 0.06
12568 H 47.27964562287926 93.99963144205236 9.459529276246826 H 0.0 **** 0.06
12569 H 48.302311238767686 92.78182557359452 8.659418403699306 H 0.0 **** 0.06
12570 H 47.45865659211046 94.01107019420832 7.68794840990401 H 0.0 **** 0.06
12571 C 194.2957413795508 93.33450013862219 154.1530762764654 C 0.0 **** -0.24
12572 H 193.778192922743 92.42493807394305 154.46035816605269 H 0.0 **** 0.06
12573 H 193.60600915660171 94.17778779727371 154.20130584473335 H 0.0 **** 0.06
12574 H 194.65848970487042 93.21854904884651 153.13199612804053 H 0.0 **** 0.06
12575 H 195.1387163809251 93.5149769109886 154.820231406669 H 0.0 **** 0.06
12576 C 124.52697123078505 157.2109162145253 154.2883405996277 C 0.0 **** -0.24
12577 H 124.72527486626234 157.00012893332317 155.33933587928357 H 0.0 **** 0.06
12578 H 124.9615220377301 158.17470744999508 154.0222959760878 H 0.0 **** 0.06
12579 H 123.44971878168073 157.23848708650672 154.12053500339914 H 0.0 **** 0.06
12580 H 124.97017386145501 156.42915740982394 153.67160704437555 H 0.0 **** 0.06
12581 C 138.987229462564 49.11495507540255 129.55803350322572 C 0.0 **** -0.24
12582 H 138.68218264807655 49.49829677951561 130.53157664785715 H 0.0 **** 0.06
12583 H 139.95423600845226 49.537833820756276 129.28700661574157 H 0.0 **** 0.06
12584 H 138.24573592269348 49.39445709675687 128.8094764670642 H 0.0 **** 0.06
12585 H 139.06470290522563 48.028410287522945 129.6037935769208 H 0.0 **** 0.06
12586 C 84.61469858692891 86.52425527239166 62.71770111833496 C 0.0 **** -0.24
12587 H 83.61275171237162 86.21309435101671 62.42009559161298 H 0.0 **** 0.06
12588 H 84.54492355187526 87.22812705842648 63.54635521456845 H 0.0 **** 0.06
12589 H 85.11080495005825 87.00311749793684 61.873651284316296 H 0.0 **** 0.06
12590 H 85.18777203009961 85.65148385195857 63.02823215652545 H 0.0 **** 0.06
12591 C 129.56713799251057 99.42311518073882 61.551163968043596 C 0.0 **** -0.24
12592 H 129.01599451322403 99.41049385874402 62.49135024998864 H 0.0 **** 0.06
12593 H 130.32504670801575 98.63958418080495 61.56409618877319 H 0.0 **** 0.06
12594 H 130.04865990333707 100.39292661739688 61.42489792268333 H 0.0 **** 0.06
12595 H 128.87885084546554 99.24945606600966 60.72431151072951 H 0.0 **** 0.06
12596 C 123.31481755897863 140.60737769522893 173.7398772954506 C 0.0 **** -0.24
12597 H 122.88933785527979 139.90109585704522 174.45331733188488 H 0.0 **** 0.06
12598 H 124.1966550213848 140.16653411316685 173.27477804516988 H 0.0 **** 0.06
12599 H 123.59765226846434 141.52266933588294 174.26094106031792 H 0.0 **** 0.06
12600 H 122.57535360492238 140.83937217848683 172.97290185938346 H 0.0 **** 0.06
12601 C 191.27166665610636 47.757161776019984 166.0111416436074 C 0.0 **** -0.24
12602 H 192.3319509880524 47.98893475358716 165.9057370672061 H 0.0 **** 0.06
12603 H 191.12213749022152 47.133224965181455 166.89229348443075 H 0.0 **** 0.06
12604 H 190.92706076862925 47.22254787071955 165.12488294640897 H 0.0 **** 0.06
12605 H 190.70669436128327 48.68290074233403 166.12006066641553 H 0.0 **** 0.06
12606 C 115.68100709909373 18.71239792614128 128.22072513533513 C 0.0 **** -0.24
12607 H 115.51338848559544 18.285102018953467 127.23190113786288 H 0.0 **** 0.06
12608 H 116.09550972471442 17.949132173748524 128.88013826146894 H 0.0 **** 0.06
12609 H 114.73476029863775 19.06909877883558 128.6276381219688 H 0.0 **** 0.06
12610 H 116.37960759934043 19.54508122751085 128.14304290656366 H 0.0 **** 0.06
12611 C 45.74107514449055 23.670938258160504 96.83070561253419 C 0.0 **** -0.24
12612 H 44.954653184981936 22.92204934403756 96.9262387749693 H 0.0 **** 0.06
12613 H 45.74051448684929 24.313507500489322 97.71166143194665 H 0.0 **** 0.06
12614 H 45.562595764976464 24.272826114933537 95.94067428617848 H 0.0 **** 0.06
12615 H 46.70777693020324 23.17335199092082 96.7448727744586 H 0.0 **** 0.06
12616 C 184.98881756634927 42.07418437488812 8.992036971313155 C 0.0 **** -0.24
12617 H 185.63549383042093 41.28306213890552 8.612463394274357 H 0.0 **** 0.06
12618 H 183.96169929540537 41.88410571849215 8.680086893632705 H 0.0 **** 0.06
12619 H 185.31838647988639 43.033629439419954 8.594147328357337 H 0.0 **** 0.06
12620 H 185.04064771024832 42.09498723306953 10.081030809492745 H 0.0 **** 0.06
12621 C 74.85785599437774 66.58862887215776 167.93680780716184 C 0.0 **** -0.24
12622 H 75.69205680732786 65.88941068275744 168.00228017412647 H 0.0 **** 0.06
12623 H 74.27087296677355 66.3702708102544 167.04448086453613 H 0.0 **** 0.06
12624 H 75.24187704478068 67.60748279920813 167.87919524965795 H 0.0 **** 0.06
12625 H 74.22862246563447 66.48738847257204 168.8202862733535 H 0.0 **** 0.06
12626 C 57.92875010972614 29.406523666554733 169.97616908427466 C 0.0 **** -0.24
12627 H 58.076169899813635 28.682399799417396 170.77654504739007 H 0.0 **** 0.06
12628 H 58.89818563301003 29.723529489613213 169.5901991606597 H 0.0 **** 0.06
12629 H 57.39079515642868 30.27147838999531 170.36355579846335 H 0.0 **** 0.06
12630 H 57.350421993569626 28.94871512275205 169.17355671670938 H 0.0 **** 0.06
12631 C 144.5468041537967 181.06122995009216 98.7927297479155 C 0.0 **** -0.24
12632 H 145.53247351888234 180.756291877421 98.44252504084804 H 0.0 **** 0.06
12633 H 144.41503893979421 180.74419197518912 99.82771745518798 H 0.0 **** 0.06
12634 H 143.78131422972146 180.59842095666178 98.17080397311997 H 0.0 **** 0.06
12635 H 144.45838992678864 182.14601499109665 98.72987252250613 H 0.0 **** 0.06
12636 C 77.38387989090283 119.6176207365661 160.63443520599947 C 0.0 **** -0.24
12637 H 77.81010501405093 119.5219030025603 161.63286894612807 H 0.0 **** 0.06
12638 H 78.10824636948857 119.27363750017122 159.89574417928813 H 0.0 **** 0.06
12639 H 77.13854659098044 120.66235610140808 160.44334027314244 H 0.0 **** 0.06
12640 H 76.48015057920708 119.0133040542637 160.5654038327359 H 0.0 **** 0.06
12641 C 53.621147504384055 109.84309068751088 105.26736446110141 C 0.0 **** -0.24
12642 H 53.88212445271466 110.89886782629276 105.3425466066846 H 0.0 **** 0.06
12643 H 54.52483378548408 109.23948931968107 105.35115690904416 H 0.0 **** 0.06
12644 H 53.14622871716227 109.65436474111095 104.30513926805631 H 0.0 **** 0.06
12645 H 52.93264899232844 109.58142796461635 106.07011104295947 H 0.0 **** 0.06
12646 C 171.2635368336699 106.79669914147144 86.19910979529715 C 0.0 **** -0.24
12647 H 171.58683352308262 107.80900298229488 86.44037905066165 H 0.0 **** 0.06
12648 H 171.90442076145828 106.07819754699997 86.71101794346748 H 0.0 **** 0.06
12649 H 171.3313023629748 106.6413019344738 85.12214404185039 H 0.0 **** 0.06
12650 H 170.23176970601523 106.65868359460578 86.52155044676906 H 0.0 **** 0.06
12651 C 132.77550578652844 71.2602377412007 38.582139547835126 C 0.0 **** -0.24
12652 H 132.12172467331868 71.90513158815516 39.169446850403105 H 0.0 **** 0.06
12653 H 132.17690611038992 70.51239684169599 38.062267358024485 H 0.0 **** 0.06
12654 H 133.4842339454021 70.76222288427417 39.245062105693506 H 0.0 **** 0.06
12655 H 133.32068362410791 71.8611518509269 37.85436483153981 H 0.0 **** 0.06
12656 C 182.74006595534297 100.10124713094507 72.88123994976877 C 0.0 **** -0.24
12657 H 182.76971710472907 99.5733965857712 73.8340910814353 H 0.0 **** 0.06
12658 H 182.6047772383386 101.16804822809351 73.05972262997818 H 0.0 **** 0.06
12659 H 181.91057860253287 99.72499888931821 72.2832502716704 H 0.0 **** 0.06
12660 H 183.6759717450108 99.93811226055482 72.34584563474931 H 0.0 **** 0.06
12661 C 4.004730004706964 93.12849037215881 62.16740871512515 C 0.0 **** -0.24
12662 H 3.154239410726788 93.57206520958641 61.64920237889362 H 0.0 **** 0.06
12663 H 4.2351079891613495 92.15900673790429 61.723461430098084 H 0.0 **** 0.06
12664 H 3.760154623638627 92.99831202811765 63.22123562075457 H 0.0 **** 0.06
12665 H 4.869157118240011 93.78647157313083 62.07342357564798 H 0.0 **** 0.06
12666 C 95.44707391411177 89.91729898278018 100.25480607072174 C 0.0 **** -0.24
12667 H 94.43134035369087 89.82550798167503 99.86795149169458 H 0.0 **** 0.06
12668 H 95.44859126897288 90.58486554796715 101.11629446570439 H 0.0 **** 0.06
12669 H 96.09479983508535 90.32323877216768 99.47877793489516 H 0.0 **** 0.06
12670 H 95.81077213551396 88.93476336124144 100.55496274781814 H 0.0 **** 0.06
12671 C 46.36413276970974 27.44917489213306 123.86093562268113 C 0.0 **** -0.24
12672 H 46.976232391906294 28.32843154367393 123.66301530983293 H 0.0 **** 0.06
12673 H 46.392411873254744 26.7850579130382 122.99669339560745 H 0.0 **** 0.06
12674 H 45.33607208646187 27.756375635154583 124.05089246367035 H 0.0 **** 0.06
12675 H 46.75401640050663 26.92530806289183 124.73404844268995 H 0.0 **** 0.06
12676 C 152.1597932355053 84.93831068930683 142.91903958666586 C 0.0 **** -0.24
12677 H 151.31949114933312 84.26202502877186 142.76150293799776 H 0.0 **** 0.06
12678 H 151.97217731295945 85.87792852228529 142.398141991851 H 0.0 **** 0.06
12679 H 153.07042493978787 84.48327687645218 142.5309818789132 H 0.0 **** 0.06
12680 H 152.27579351027055 85.13151761393482 143.9858149696935 H 0.0 **** 0.06
12681 C 150.22672933824947 59.258988537556576 138.9319961705761 C 0.0 **** -0.24
12682 H 150.31559511530082 59.18139016400835 140.01547115537548 H 0.0 **** 0.06
12683 H 150.23835040765448 60.30981354040192 138.64086996334902 H 0.0 **** 0.06
12684 H 149.2902947511338 58.80282666272146 138.6099739615948 H 0.0 **** 0.06
12685 H 151.06397164268327 58.74246688495663 138.46184044762995 H 0.0 **** 0.06
12686 C 149.73630462929214 90.85744587903534 14.615730112059993 C 0.0 **** -0.24
12687 H 149.52215741082983 89.7911461668937 14.68523238555349 H 0.0 **** 0.06
12688 H 149.9508336058973 91.11679483256367 13.578540572365512 H 0.0 **** 0.06
12689 H 150.5985351254246 91.0961561037972 15.237096065632386 H 0.0 **** 0.06
12690 H 148.87129319005334 91.42466389679922 14.96056866816346 H 0.0 **** 0.06
12691 C 71.66732083772034 72.42350825677453 112.44143798808878 C 0.0 **** -0.24
12692 H 71.03890110567806 73.23751252727338 112.07959634081001 H 0.0 **** 0.06
12693 H 72.1179109069397 71.90848230299736 111.59269800995978 H 0.0 **** 0.06
12694 H 71.05934043390823 71.72199332468806 113.01188718911033 H 0.0 **** 0.06
12695 H 72.4525703267244 72.82736242381043 113.08017402542973 H 0.0 **** 0.06
12696 C 31.750248402175885 31.544738540647188 175.30031361340008 C 0.0 **** -0.24
12697 H 32.48523158096344 31.187532695219943 174.57938963626557 H 0.0 **** 0.06
12698 H 30.754252051582853 31.227507791510533 174.9901916708489 H 0.0 **** 0.06
12699 H 31.78767195822121 32.63313737537061 175.34690908658948 H 0.0 **** 0.06
12700 H 31.974018874548108 31.131165399006818 176.28256952092167 H 0.0 **** 0.06
12701 C 161.93137843050746 195.7218459878489 58.93508549487572 C 0.0 **** -0.24
12702 H 162.71355917667793 196.00675607798013 59.6394896588222 H 0.0 **** 0.06
12703 H 160.97240624624706 196.10668237586614 59.28120104506104 H 0.0 **** 0.06
12704 H 161.88425970358088 194.6344203734259 58.866879422285635 H 0.0 **** 0.06
12705 H 162.1576179380437 196.13797919640496 57.95320132259822 H 0.0 **** 0.06
12706 C 57.3801111127965 16.800354656224926 77.91853826101614 C 0.0 **** -0.24
12707 H 57.135911910313666 16.40630716895498 76.93122116697144 H 0.0 **** 0.06
12708 H 57.59590269061141 17.86607593651587 77.83998357570592 H 0.0 **** 0.06
12709 H 58.25394707156033 16.280899885913755 78.31092725901097 H 0.0 **** 0.06
12710 H 56.533874044329025 16.64857541232098 78.5885349522546 H 0.0 **** 0.06
12711 C 45.655261244740046 18.96525457701415 182.56157692087234 C 0.0 **** -0.24
12712 H 45.17782768007726 19.57935532136497 183.32451540371733 H 0.0 **** 0.06
12713 H 46.71380969218029 18.851762534047253 182.79675650370052 H 0.0 **** 0.06
12714 H 45.547772317342776 19.444966533094174 181.58844883887096 H 0.0 **** 0.06
12715 H 45.18154420488966 17.983204289957087 182.53657469219678 H 0.0 **** 0.06
12716 C 19.935744042614317 73.14029636185741 198.8454250291926 C 0.0 **** -0.24
12717 H 19.117918895213833 72.51599166505414 198.48424588176454 H 0.0 **** 0.06
12718 H 19.72308796175615 74.18492155644887 198.61568756792724 H 0.0 **** 0.06
12719 H 20.862495251228296 72.84135298930204 198.35601647575086 H 0.0 **** 0.06
12720 H 20.038019625981036 73.01744171048685 199.9235818449126 H 0.0 **** 0.06
12721 C 188.49232164183275 175.41322465122306 177.67569474527497 C 0.0 **** -0.24
12722 H 188.45254250046702 174.85250535352225 178.6097671084207 H 0.0 **** 0.06
12723 H 188.6806468356139 176.46532394286749 177.89113011643636 H 0.0 **** 0.06
12724 H 187.54105618206466 175.31422585216922 177.1522303639043 H 0.0 **** 0.06
12725 H 189.29368211166297 175.0211739058102 177.04986147610055 H 0.0 **** 0.06
12726 C 19.2135918022816 73.06193464525057 91.36432469459953 C 0.0 **** -0.24
12727 H 18.784195096025655 72.13393210425374 90.98611781221081 H 0.0 **** 0.06
12728 H 20.22153737502964 73.18357812355146 90.96834457262531 H 0.0 **** 0.06
12729 H 19.252122880937577 73.02631735397188 92.45269293628277 H 0.0 **** 0.06
12730 H 18.59529916145894 73.90268024807455 91.05026464166673 H 0.0 **** 0.06
12731 C 27.185979548752357 99.47290362267378 160.16109788340276 C 0.0 **** -0.24
12732 H 27.803982808750135 98.92038538025588 159.45250401462908 H 0.0 **** 0.06
12733 H 27.176053830401514 100.52818892309256 159.88745741119226 H 0.0 **** 0.06
12734 H 27.5959104241785 99.35998391287211 161.16481721766309 H 0.0 **** 0.06
12735 H 26.169387731416464 99.08082852281876 160.13818791212822 H 0.0 **** 0.06
12736 C 130.71489340437756 121.06442642462682 99.65547200135813 C 0.0 **** -0.24
12737 H 129.81150295340484 121.65247839862397 99.49546500540279 H 0.0 **** 0.06
12738 H 130.8344790170134 120.86659119829028 100.720566918121 H 0.0 **** 0.06
12739 H 131.5791490957419 121.61846812008 99.28891015725122 H 0.0 **** 0.06
12740 H 130.6344425513501 120.12016798151288 99.1169459246575 H 0.0 **** 0.06
12741 C 111.43019302950972 67.76651340971985 184.1871294389187 C 0.0 **** -0.24
12742 H 110.93313672823535 68.55476021716383 183.62229701084732 H 0.0 **** 0.06
12743 H 110.68046258113404 67.10986269762073 184.63000053519136 H 0.0 **** 0.06
12744 H 112.03551859439403 68.21145194894187 184.97582538984912 H 0.0 **** 0.06
12745 H 112.07005490973827 67.18945730691166 183.5189215906962 H 0.0 **** 0.06
12746 C 71.97469111481331 78.78218011433592 144.52421559949917 C 0.0 **** -0.24
12747 H 72.63009107598704 79.17809656485801 145.29975975053284 H 0.0 **** 0.06
12748 H 71.23849950182898 78.11654009241849 144.97581494832903 H 0.0 **** 0.06
12749 H 72.56678203710797 78.22974089394015 143.79564309322012 H 0.0 **** 0.06
12750 H 71.46329771794893 79.60550427624878 144.0269261770265 H 0.0 **** 0.06
12751 C 158.50543752747993 186.87708414916693 81.10490820360809 C 0.0 **** -0.24
12752 H 158.8834845164989 186.95333702386117 82.12436769471367 H 0.0 **** 0.06
12753 H 157.57006194132617 187.43249615074308 81.02174119239723 H 0.0 **** 0.06
12754 H 158.32972673970664 185.82954903111187 80.86114075796092 H 0.0 **** 0.06
12755 H 159.23797766359996 187.29437100897712 80.41403968742603 H 0.0 **** 0.06
12756 C 99.13306299554728 86.90736512672663 98.00912990394434 C 0.0 **** -0.24
12757 H 98.74484402382956 86.18916325204782 97.28708366255171 H 0.0 **** 0.06
12758 H 98.8960871954522 87.91922361315198 97.67844941881785 H 0.0 **** 0.06
12759 H 100.21442885797433 86.79430127194257 98.0880230229055 H 0.0 **** 0.06
12760 H 98.67623632519278 86.72738459038794 98.9825214450727 H 0.0 **** 0.06
12761 C 152.32181574627083 6.545226670210816 196.29029301637127 C 0.0 **** -0.24
12762 H 151.44163512513222 6.0203356466683005 196.66256467163518 H 0.0 **** 0.06
12763 H 153.20000243752705 5.909881784804419 196.40718486235912 H 0.0 **** 0.06
12764 H 152.46160213146422 7.466699900903343 196.85512442927782 H 0.0 **** 0.06
12765 H 152.18351021074338 6.783340473365776 195.23573620239014 H 0.0 **** 0.06
12766 C 184.30578165478937 155.31073051518783 186.39455300649809 C 0.0 **** -0.24
12767 H 183.46429912915042 154.9587038414417 186.99101260729103 H 0.0 **** 0.06
12768 H 185.0859481517573 155.68931517824308 187.05673170092643 H 0.0 **** 0.06
12769 H 183.97268021611927 156.1084007278385 185.73078396555127 H 0.0 **** 0.06
12770 H 184.70146824361802 154.4859495692155 185.8017046268874 H 0.0 **** 0.06
12771 C 163.99885596538303 51.77555533864063 130.5857242463885 C 0.0 **** -0.24
12772 H 164.002074116017 52.60418978090817 129.8771592881377 H 0.0 **** 0.06
12773 H 162.98164207638126 51.39762736166779 130.6978450486381 H 0.0 **** 0.06
12774 H 164.3658429853046 52.12271864242848 131.55140993150974 H 0.0 **** 0.06
12775 H 164.64428213463447 50.97954325023994 130.21627131662387 H 0.0 **** 0.06
12776 C 108.34540624574413 49.48225846801486 18.60360279197272 C 0.0 **** -0.24
12777 H 107.63434088418228 50.00008763095187 19.246932941916953 H 0.0 **** 0.06
12778 H 108.96691314048974 48.8206616227467 19.208462704633064 H 0.0 **** 0.06
12779 H 108.97571768488103 50.21246923796822 18.09744533320361 H 0.0 **** 0.06
12780 H 107.80315359138399 48.894633080803644 17.863104219154764 H 0.0 **** 0.06
12781 C 138.28610395872298 45.56003963323832 139.3606433696207 C 0.0 **** -0.24
12782 H 139.36599696266384 45.427366264727084 139.3007723121317 H 0.0 **** 0.06
12783 H 138.03417171236075 46.0708791161442 140.29038949870545 H 0.0 **** 0.06
12784 H 137.79879155693976 44.584772507751154 139.3385671140391 H 0.0 **** 0.06
12785 H 137.94545126441892 46.156511220288735 138.51411098551793 H 0.0 **** 0.06
12786 C 166.41756241018385 131.79143262795017 60.20628278894705 C 0.0 **** -0.24
12787 H 166.7775249963202 132.52373589227383 59.48416539508271 H 0.0 **** 0.06
12788 H 165.58770458799813 132.21588114132697 60.77123777340148 H 0.0 **** 0.06
12789 H 167.2248629166328 131.52811815897036 60.88912394806566 H 0.0 **** 0.06
12790 H 166.08148888980443 130.8977288756592 59.68020971330628 H 0.0 **** 0.06
12791 C 94.96270934943709 21.189485823720645 63.78183428658555 C 0.0 **** -0.24
12792 H 94.63994206499387 21.796665590764576 62.93612411621953 H 0.0 **** 0.06
12793 H 95.16522703956684 20.17315891977657 63.44301293913351 H 0.0 **** 0.06
12794 H 94.17734244558056 21.171719977680652 64.53767745163515 H 0.0 **** 0.06
12795 H 95.86930191353622 21.617421777891252 64.21049317078202 H 0.0 **** 0.06
12796 C 196.10044220404012 131.59725959974998 151.93984705098467 C 0.0 **** -0.24
12797 H 195.23267510039472 132.07936048929756 152.3891594719261 H 0.0 **** 0.06
12798 H 196.24854375024347 130.61827492163692 152.39534854210285 H 0.0 **** 0.06
12799 H 196.9839616689623 132.21297807133314 152.10588555109064 H 0.0 **** 0.06
12800 H 195.93543307788354 131.4792316808822 150.8688736237408 H 0.0 **** 0.06
12801 C 162.04100435547878 112.06960900373332 115.89049841167582 C 0.0 **** -0.24
12802 H 162.26643560955776 113.12919561602459 115.77769502779347 H 0.0 **** 0.06
12803 H 162.4606665922122 111.7070778776017 116.82919723713405 H 0.0 **** 0.06
12804 H 162.47707965444246 111.51452343680646 115.0590989531014 H 0.0 **** 0.06
12805 H 160.96014158565725 111.9262585771792 115.8959780451421 H 0.0 **** 0.06
12806 C 35.803869552606784 0.25750115909842464 5.995214182424306 C 0.0 **** -0.24
12807 H 36.17399013987841 -0.7442473560142417 5.7737161531024555 H 0.0 **** 0.06
12808 H 35.78386012777389 0.847587455502044 5.079086754880308 H 0.0 **** 0.06
12809 H 36.461208535372464 0.7350844320250474 6.721879417657391 H 0.0 **** 0.06
12810 H 34.79702548012972 0.18852167858747748 6.4056462746929625 H 0.0 **** 0.06
12811 C 78.50996548296146 40.15801234104961 83.96994821080227 C 0.0 **** -0.24
12812 H 78.61626242752223 41.20997114781933 84.23523732654553 H 0.0 **** 0.06
12813 H 79.49466033381808 39.73042565644633 83.77883207032937 H 0.0 **** 0.06
12814 H 77.89533270545301 40.070571240526675 83.07405575977947 H 0.0 **** 0.06
12815 H 78.0352478653563 39.622842981308764 84.79211766664764 H 0.0 **** 0.06
12816 C 119.66950352384956 85.24764807764882 72.21902776604855 C 0.0 **** -0.24
12817 H 119.10900855447503 84.32164974895636 72.34218676351263 H 0.0 **** 0.06
12818 H 119.7678408344014 85.47425096053237 71.15665230377274 H 0.0 **** 0.06
12819 H 120.65955657713002 85.13451829188287 72.65985797032891 H 0.0 **** 0.06
12820 H 119.1403408243728 86.06068462434229 72.71704996879454 H 0.0 **** 0.06
12821 C 54.26738265661956 102.51687555046638 102.3808192539293 C 0.0 **** -0.24
12822 H 54.04424695707246 102.08085903968743 103.35353025944369 H 0.0 **** 0.06
12823 H 53.48493632834828 103.22655632567918 102.11238933915877 H 0.0 **** 0.06
12824 H 54.31427775995502 101.72760265656473 101.63082404017246 H 0.0 **** 0.06
12825 H 55.22671474327433 103.03322690542305 102.42551742032214 H 0.0 **** 0.06
12826 C 172.01790878478394 61.648152271760125 16.504512310780257 C 0.0 **** -0.24
12827 H 171.88259999101177 60.97128361034993 17.349010422698484 H 0.0 **** 0.06
12828 H 171.80457396283373 61.11671668917501 15.576492817227859 H 0.0 **** 0.06
12829 H 173.0455219291637 62.00837332888932 16.48906394185221 H 0.0 **** 0.06
12830 H 171.33743667648176 62.49327869550686 16.60347542426544 H 0.0 **** 0.06
12831 C 85.0587129005014 60.02000667877974 179.90212951188764 C 0.0 **** -0.24
12832 H 85.40592732958476 61.050668640095125 179.96874577007986 H 0.0 **** 0.06
12833 H 84.74107593859202 59.80977129044274 178.87961957127487 H 0.0 **** 0.06
12834 H 84.21830257670365 59.874387696252995 180.58139256770903 H 0.0 **** 0.06
12835 H 85.86862866585136 59.344546431283675 180.17658456682 H 0.0 **** 0.06
12836 C 135.16985988649276 12.206629686960213 132.39833576825117 C 0.0 **** -0.24
12837 H 135.35738573140097 13.152361814534167 132.90786153428422 H 0.0 **** 0.06
12838 H 134.15115197452533 12.198620231513885 132.01232450720613 H 0.0 **** 0.06
12839 H 135.2988513754026 11.383695108660582 133.10089860812045 H 0.0 **** 0.06
12840 H 135.87311316957886 12.093738799473158 131.57338598537333 H 0.0 **** 0.06
12841 C 76.63710330211256 152.72135165536756 178.496398741733 C 0.0 **** -0.24
12842 H 77.25294251995626 153.25233648969606 177.7697304056826 H 0.0 **** 0.06
12843 H 77.19753228382086 151.87935966771715 178.90155983529715 H 0.0 **** 0.06
12844 H 75.73372534034024 152.3563250327552 178.00832652025233 H 0.0 **** 0.06
12845 H 76.36400263828182 153.39985202796822 179.30377097677058 H 0.0 **** 0.06
12846 C 191.90490997523992 189.39877637753767 100.32487881916614 C 0.0 **** -0.24
12847 H 191.1061124879796 188.6989896783425 100.57121566184256 H 0.0 **** 0.06
12848 H 192.29240962948722 189.17282728612366 99.33196206205133 H 0.0 **** 0.06
12849 H 192.7064988060361 189.30626411252626 101.0583612873015 H 0.0 **** 0.06
12850 H 191.51420709136448 190.4163637765556 100.34087351886691 H 0.0 **** 0.06
12851 C 24.18983231060389 114.10505533026628 96.23805543542642 C 0.0 **** -0.24
12852 H 24.257739283087204 115.14961088389936 95.93643980246506 H 0.0 **** 0.06
12853 H 23.87412065250564 113.5008435068649 95.38667952795265 H 0.0 **** 0.06
12854 H 23.46314082434135 114.00533555465927 97.04354851750446 H 0.0 **** 0.06
12855 H 25.16532936219255 113.76332888812908 96.58360892828549 H 0.0 **** 0.06
12856 C 175.05600753326368 107.28702607464686 132.0199823746657 C 0.0 **** -0.24
12857 H 174.83281899525227 106.22708162312358 131.90273777737366 H 0.0 **** 0.06
12858 H 175.7968970284373 107.41766193589217 132.80952638058272 H 0.0 **** 0.06
12859 H 174.14541403134606 107.82303636715335 132.28485987745626 H 0.0 **** 0.06
12860 H 175.4502690093675 107.68067600813157 131.0828546823774 H 0.0 **** 0.06
12861 C 30.78229277222964 39.99054620724351 57.54765419519717 C 0.0 **** -0.24
12862 H 29.990490456976048 39.2668046668862 57.740270272621686 H 0.0 **** 0.06
12863 H 31.219676401856404 39.797503156025556 56.56737022917609 H 0.0 **** 0.06
12864 H 31.55276938768256 39.89765851089085 58.313311658886704 H 0.0 **** 0.06
12865 H 30.36687221482501 40.99808970219594 57.56941541146267 H 0.0 **** 0.06
12866 C 133.1305500174836 47.25528320461842 139.34733600207142 C 0.0 **** -0.24
12867 H 132.62994601486875 46.84024374933085 140.2210519314426 H 0.0 **** 0.06
12868 H 134.20064559915684 47.33003837951097 139.54188882725794 H 0.0 **** 0.06
12869 H 132.72912487823 48.24632215675797 139.13575543943784 H 0.0 **** 0.06
12870 H 132.9618377640168 46.60391200208534 138.48859770708066 H 0.0 **** 0.06
12871 C 87.86751598890231 63.945682759554984 193.34141274364245 C 0.0 **** -0.24
12872 H 88.8996580824537 64.14454085177836 193.62890157376626 H 0.0 **** 0.06
12873 H 87.75730616966794 62.891150820998774 193.08952416019258 H 0.0 **** 0.06
12874 H 87.60701621285074 64.55572367432066 192.47650486950204 H 0.0 **** 0.06
12875 H 87.20518383843043 64.19290470294582 194.1715363084829 H 0.0 **** 0.06
12876 C 75.91129406725408 66.32779306655073 152.0380562945388 C 0.0 **** -0.24
12877 H 76.03546327842737 65.44590831379634 151.4095756085031 H 0.0 **** 0.06
12878 H 75.63411241665665 66.01798224459492 153.04575876713562 H 0.0 **** 0.06
12879 H 75.12773470730258 66.96139791351959 151.62403904589013 H 0.0 **** 0.06
12880 H 76.84791358086333 66.88447188012736 152.0729170634171 H 0.0 **** 0.06
12881 C 65.68546709589828 114.30766778672776 119.03886682447583 C 0.0 **** -0.24
12882 H 65.16748750582494 114.45239864901257 118.0911850277432 H 0.0 **** 0.06
12883 H 66.7597679953202 114.25486809900369 118.86016744328012 H 0.0 **** 0.06
12884 H 65.34789416281922 113.37940065076083 119.49940489395442 H 0.0 **** 0.06
12885 H 65.46792058853038 115.14284330527096 119.70322366525508 H 0.0 **** 0.06
12886 C 110.9845140256441 141.69360996304084 92.37348189291731 C 0.0 **** -0.24
12887 H 111.7116316152376 142.2510264586678 92.96557444005634 H 0.0 **** 0.06
12888 H 111.49687304137481 141.1786685261309 91.56069517911465 H 0.0 **** 0.06
12889 H 110.24840612509959 142.38354799132662 91.96131766524366 H 0.0 **** 0.06
12890 H 110.48337712264313 140.96306130824613 93.00847177367973 H 0.0 **** 0.06
12891 C 173.4230667382556 124.77293699300208 132.5388106161305 C 0.0 **** -0.24
12892 H 172.77777324787553 125.65031858943982 132.51234361950287 H 0.0 **** 0.06
12893 H 172.81544754063196 123.8793635597961 132.686405134339 H 0.0 **** 0.06
12894 H 174.13302908515848 124.86894135034137 133.3596414686437 H 0.0 **** 0.06
12895 H 173.96601063904626 124.69212875974509 131.59675984946836 H 0.0 **** 0.06
12896 C 150.7805799771057 173.67130554081103 156.3700147243431 C 0.0 **** -0.24
12897 H 149.905470621095 173.51885069082195 155.73948813165308 H 0.0 **** 0.06
12898 H 151.3801303060527 174.48931818711876 155.96910772458892 H 0.0 **** 0.06
12899 H 151.3779031931642 172.7593596512176 156.3894920921076 H 0.0 **** 0.06
12900 H 150.46099054290607 173.91730403632351 157.38231556946343 H 0.0 **** 0.06
12901 C 48.37864687924596 148.77515985953013 74.22905958466954 C 0.0 **** -0.24
12902 H 48.36744579041607 149.77822088885574 73.80206216102462 H 0.0 **** 0.06
12903 H 48.25124103570573 148.04101942898276 73.43274790722234 H 0.0 **** 0.06
12904 H 47.56560497429621 148.67669680671236 74.9472514367608 H 0.0 **** 0.06
12905 H 49.33050101042295 148.60569982159086 74.73102040056257 H 0.0 **** 0.06
12906 C 96.87363391994361 19.59421461448109 98.11934278203674 C 0.0 **** -0.24
12907 H 97.56459013237739 18.764921138778547 97.96626588523651 H 0.0 **** 0.06
12908 H 97.2129587763151 20.45970670272831 97.54989851116159 H 0.0 **** 0.06
12909 H 96.83909857590288 19.84680776872014 99.17952423337792 H 0.0 **** 0.06
12910 H 95.87871832963444 19.303460548477105 97.78236100160555 H 0.0 **** 0.06
12911 C 165.58010284177885 138.16762729631833 80.14454314142858 C 0.0 **** -0.24
12912 H 164.55069254644332 138.16192327863132 80.50213449939793 H 0.0 **** 0.06
12913 H 165.66189182431253 138.83445339589633 79.2852479460035 H 0.0 **** 0.06
12914 H 165.86802794255635 137.15817385436074 79.8510477142413 H 0.0 **** 0.06
12915 H 166.2385780633092 138.5165649304259 80.94011877986748 H 0.0 **** 0.06
12916 C 44.80842253633659 195.24854635087266 198.71387060099624 C 0.0 **** -0.24
12917 H 45.39799654992734 196.12399339924207 198.43853504689486 H 0.0 **** 0.06
12918 H 43.852425755447314 195.57041321163558 199.12663270784475 H 0.0 **** 0.06
12919 H 45.35032607701669 194.6663432068538 199.45929111164165 H 0.0 **** 0.06
12920 H 44.63535641307675 194.63549980003364 197.8290464723915 H 0.0 **** 0.06
12921 C 104.33172856332214 135.93029578597472 29.60704437910826 C 0.0 **** -0.24
12922 H 104.93319621012608 135.0370905710243 29.437065544675903 H 0.0 **** 0.06
12923 H 104.07852622059079 136.38453679552742 28.648419640521382 H 0.0 **** 0.06
12924 H 104.8996491359348 136.64029403955703 30.2079323692559 H 0.0 **** 0.06
12925 H 103.41784926692088 135.65777395554636 30.133549017745594 H 0.0 **** 0.06
12926 C 77.20670881448686 105.02654342247317 122.24179009472883 C 0.0 **** -0.24
12927 H 77.55367015183835 105.84979094248231 121.61810346513695 H 0.0 **** 0.06
12928 H 78.06452921382527 104.50283113792526 122.66279516847712 H 0.0 **** 0.06
12929 H 76.61899452119998 104.33568562347494 121.6372083420018 H 0.0 **** 0.06
12930 H 76.58843258997999 105.4185893236097 123.04917859991971 H 0.0 **** 0.06
12931 C 83.88777002797187 58.5637795469861 115.19611810924127 C 0.0 **** -0.24
12932 H 83.32504139203155 58.74835734971458 116.11072413407229 H 0.0 **** 0.06
12933 H 83.20896473669549 58.57419392648205 114.34262491873949 H 0.0 **** 0.06
12934 H 84.37650155510562 57.59163223763073 115.25988160435199 H 0.0 **** 0.06
12935 H 84.64194628196782 59.34111832050502 115.07096099044318 H 0.0 **** 0.06
12936 C 30.325714671179725 30.487286639195574 56.856805169006236 C 0.0 **** -0.24
12937 H 30.229944614486527 29.431135403678496 57.10884355366025 H 0.0 **** 0.06
12938 H 30.12848412026834 30.62594585680141 55.79328768577818 H 0.0 **** 0.06
12939 H 31.33598937074268 30.824903190892215 57.08662197387895 H 0.0 **** 0.06
12940 H 29.608108840886047 31.065991085612765 57.43774725055509 H 0.0 **** 0.06
12941 C 190.8116482623829 30.599586252695985 107.75487586193574 C 0.0 **** -0.24
12942 H 190.1904188806046 30.374521275252675 108.62113186867569 H 0.0 **** 0.06
12943 H 190.2312398590296 31.171892020500536 107.03097056202722 H 0.0 **** 0.06
12944 H 191.14796843852866 29.669037078695453 107.298085267327 H 0.0 **** 0.06
12945 H 191.67727956419571 31.18337707449325 108.070133595573 H 0.0 **** 0.06
12946 C 100.04079580063856 125.31174725719887 40.98441976347681 C 0.0 **** -0.24
12947 H 99.03496946903897 125.57562916656772 41.31041730937693 H 0.0 **** 0.06
12948 H 100.47339972421923 126.14585631160114 40.431714942872645 H 0.0 **** 0.06
12949 H 99.99574894451186 124.43297550635396 40.34088757352791 H 0.0 **** 0.06
12950 H 100.65928372379543 125.0934537048791 41.854968035991675 H 0.0 **** 0.06
12951 C 170.47660654479583 59.08108812474683 109.63708718856827 C 0.0 **** -0.24
12952 H 170.83789238557378 59.065420192896156 110.66619688974603 H 0.0 **** 0.06
12953 H 170.74472915591235 60.0308129136601 109.17293333575478 H 0.0 **** 0.06
12954 H 169.39326638565558 58.96709568243537 109.63184566371433 H 0.0 **** 0.06
12955 H 170.93154319026723 58.26193040007574 109.08023087632935 H 0.0 **** 0.06
12956 C 28.858982149775926 106.82910055631282 198.75403260113146 C 0.0 **** -0.24
12957 H 27.826767853458747 107.01902856334914 199.04722309881376 H 0.0 **** 0.06
12958 H 28.942822706834747 106.87836555823901 197.66794032905813 H 0.0 **** 0.06
12959 H 29.158082175325816 105.83899708861145 199.09690570237038 H 0.0 **** 0.06
12960 H 29.50825586348438 107.5800110150517 199.20406127428367 H 0.0 **** 0.06
12961 C 107.32161488507896 139.89202964995147 147.93431486582816 C 0.0 **** -0.24
12962 H 108.23256704588604 139.58763514635046 148.44962140342201 H 0.0 **** 0.06
12963 H 106.56053802162111 140.15857120100839 148.66804867559523 H 0.0 **** 0.06
12964 H 106.96013019012335 139.06701846887123 147.31906525270375 H 0.0 **** 0.06
12965 H 107.53318100114981 140.75318099745587 147.30027005430895 H 0.0 **** 0.06
12966 C 178.716573134044 109.5749973453382 48.65771455535668 C 0.0 **** -0.24
12967 H 179.3139007798182 110.35818666418228 49.12402544586408 H 0.0 **** 0.06
12968 H 177.75039089180882 109.9824546170924 48.36113047685444 H 0.0 **** 0.06
12969 H 178.56652837074108 108.7617735672747 49.36808723656361 H 0.0 **** 0.06
12970 H 179.23822615252516 109.19639093165432 47.77774408361552 H 0.0 **** 0.06
12971 C 186.8163815300067 172.9925568058987 199.0150294322262 C 0.0 **** -0.24
12972 H 187.60563268888788 172.24133675758276 199.04071455173647 H 0.0 **** 0.06
12973 H 187.21609347501084 173.92625333247307 198.61888066211642 H 0.0 **** 0.06
12974 H 186.43840597687162 173.15792886708238 200.0238967393159 H 0.0 **** 0.06
12975 H 186.00474707256913 172.64433729701545 198.37595950624993 H 0.0 **** 0.06
12976 C 123.79619261738165 59.84317203390003 44.6358844760436 C 0.0 **** -0.24
12977 H 124.77483877284459 59.57086157043693 45.031852162810196 H 0.0 **** 0.06
12978 H 123.9095545168513 60.232632391970924 43.62379781585457 H 0.0 **** 0.06
12979 H 123.3479816710728 60.60717558407134 45.271513468801004 H 0.0 **** 0.06
12980 H 123.1537235841794 58.96279954446544 44.61764976486444 H 0.0 **** 0.06
12981 C 33.162529868284764 136.30570962175747 72.54154740783245 C 0.0 **** -0.24
12982 H 32.42087095124259 136.75947099423814 73.19924670014267 H 0.0 **** 0.06
12983 H 32.83610378536031 136.40113337089107 71.50564392924551 H 0.0 **** 0.06
12984 H 33.273966929045145 135.25136927042863 72.79355112925873 H 0.0 **** 0.06
12985 H 34.118910724984374 136.81304266633774 72.67002515297177 H 0.0 **** 0.06
12986 C 152.04591514289615 161.47729292139215 143.36724034455676 C 0.0 **** -0.24
12987 H 152.58641638560036 160.54592207518195 143.19460933998855 H 0.0 **** 0.06
12988 H 150.979264093353 161.3102422653701 143.2219156379151 H 0.0 **** 0.06
12989 H 152.3955979801371 162.23426609767085 142.66544749796435 H 0.0 **** 0.06
12990 H 152.22556513789579 161.8167973882662 144.38728900868364 H 0.0 **** 0.06
12991 C 159.58671718998508 27.46461827671358 103.28700439228047 C 0.0 **** -0.24
12992 H 159.23169176801667 28.49423525742722 103.34069354683913 H 0.0 **** 0.06
12993 H 160.22372943021284 27.255269253636513 104.14619649456543 H 0.0 **** 0.06
12994 H 160.15694154542626 27.325870376614375 102.36862163917056 H 0.0 **** 0.06
12995 H 158.7341368129401 26.78632479582025 103.2918327393547 H 0.0 **** 0.06
12996 C 54.98936377944278 173.6767371729141 90.4527296133395 C 0.0 **** -0.24
12997 H 55.81572096139365 174.1831523454838 90.95214645020403 H 0.0 **** 0.06
12998 H 55.29016475184028 172.66198287238225 90.1934900484851 H 0.0 **** 0.06
12999 H 54.723954106050655 174.2206682754924 89.54684037170986 H 0.0 **** 0.06
13000 H 54.12877245082791 173.64218156144878 91.12184558832232 H 0.0 **** 0.06
13001 C 156.4469455444612 31.777033426844753 2.891816168200883 C 0.0 **** -0.24
13002 H 157.04107391292627 32.42923099410123 3.530762539165984 H 0.0 **** 0.06
13003 H 156.3634905442139 30.79323139287598 3.3539249315227977 H 0.0 **** 0.06
13004 H 156.93146519391968 31.682028261782747 1.9196981582400028 H 0.0 **** 0.06
13005 H 155.4524864947905 32.20377060120603 2.7622119265896004 H 0.0 **** 0.06
13006 C 134.2324378273872 11.799822925331 145.1574412811137 C 0.0 **** -0.24
13007 H 134.93530969160835 12.601198012469354 145.38558991344846 H 0.0 **** 0.06
13008 H 134.49788416808462 11.34468270181111 144.2029087707136 H 0.0 **** 0.06
13009 H 133.22387447337908 12.208884892014453 145.0972752461019 H 0.0 **** 0.06
13010 H 134.272732629196 11.046117795895839 145.94330995428544 H 0.0 **** 0.06
13011 C 71.28599551521923 74.78072272764251 118.61113467301521 C 0.0 **** -0.24
13012 H 70.46932438847438 74.29710060958529 118.07423838734721 H 0.0 **** 0.06
13013 H 71.18790634849529 74.58062322769477 119.67799191851796 H 0.0 **** 0.06
13014 H 71.24906022417144 75.8563710234895 118.43686125462935 H 0.0 **** 0.06
13015 H 72.23839274583625 74.38792592750981 118.25326751929589 H 0.0 **** 0.06
13016 C 177.5003349957366 72.06557777998943 55.04775656904306 C 0.0 **** -0.24
13017 H 177.51251700594918 72.13350960558233 56.13569248341139 H 0.0 **** 0.06
13018 H 177.93085215200375 72.97396294403846 54.62347941141137 H 0.0 **** 0.06
13019 H 176.47300288982106 71.95393047464391 54.70188767376962 H 0.0 **** 0.06
13020 H 178.08710751061747 71.20332375829639 54.73157514536824 H 0.0 **** 0.06
13021 C 78.13984222168352 5.120718513541284 5.381287599670912 C 0.0 **** -0.24
13022 H 78.10242502017937 6.042904397870693 4.801014526322774 H 0.0 **** 0.06
13023 H 79.14967782097227 4.973528337641582 5.764737472197851 H 0.0 **** 0.06
13024 H 77.86499847349538 4.280516035632672 4.744460802727787 H 0.0 **** 0.06
13025 H 77.44087621871262 5.188375715650359 6.215181910035255 H 0.0 **** 0.06
13026 C 48.16828343438891 18.19383012025247 35.75021062813643 C 0.0 **** -0.24
13027 H 47.24712129386826 18.537497582610627 36.21897456813012 H 0.0 **** 0.06
13028 H 48.5785137857215 17.361491517314278 36.32330679964156 H 0.0 **** 0.06
13029 H 48.89053314389638 19.009853946674355 35.72536801675 H 0.0 **** 0.06
13030 H 47.957275197947865 17.864544238169344 34.73211287052112 H 0.0 **** 0.06
13031 C 85.9710604194039 188.84659480668188 28.142586743716777 C 0.0 **** -0.24
13032 H 86.33752543254656 187.83362681903685 27.97980189648507 H 0.0 **** 0.06
13033 H 85.91407590469836 189.04452415976678 29.213654645948964 H 0.0 **** 0.06
13034 H 84.97919640110564 188.9487879961734 27.70050412977139 H 0.0 **** 0.06
13035 H 86.65215388185356 189.5588734953671 27.67626554542261 H 0.0 **** 0.06
13036 C 56.44349878000031 29.897349792414786 181.3012224045182 C 0.0 **** -0.24
13037 H 57.18902007436395 29.46263690694846 180.63522135780772 H 0.0 **** 0.06
13038 H 56.150623000585966 29.15917507788204 182.04902825477194 H 0.0 **** 0.06
13039 H 55.56977285114323 30.196307860823538 180.72297009254856 H 0.0 **** 0.06
13040 H 56.86656694501693 30.770136127224802 181.79932584760064 H 0.0 **** 0.06
13041 C 175.1670123480297 95.66223391341106 187.7152973227165 C 0.0 **** -0.24
13042 H 176.12780640348072 95.64572585344152 187.19881112378147 H 0.0 **** 0.06
13043 H 174.88127274830063 96.69477776139445 187.91714076408113 H 0.0 **** 0.06
13044 H 175.25173414677107 95.11774794753549 188.65619208299438 H 0.0 **** 0.06
13045 H 174.41050051428417 95.19072076729367 187.08846012770596 H 0.0 **** 0.06
13046 C 193.79877577029436 128.90316923306432 178.72936495936585 C 0.0 **** -0.24
13047 H 194.74987483296323 129.40633997977451 178.9066852317124 H 0.0 **** 0.06
13048 H 193.98379699338014 127.88775109510888 178.38073936174965 H 0.0 **** 0.06
13049 H 193.2337329596316 129.45032422562062 177.97423269590772 H 0.0 **** 0.06
13050 H 193.2275259773308 128.87024066529358 179.6572356784082 H 0.0 **** 0.06
13051 C 175.07470831598553 96.51929662564339 130.9111316791428 C 0.0 **** -0.24
13052 H 174.21021608522142 96.94840212823561 131.41743724587818 H 0.0 **** 0.06
13053 H 175.04111099826167 95.43285627961441 130.99442203835497 H 0.0 **** 0.06
13054 H 175.98893751329638 96.89154578986734 131.37457772763582 H 0.0 **** 0.06
13055 H 175.05911636224937 96.80478804670778 129.85932883620268 H 0.0 **** 0.06
13056 C 94.21859539141718 33.78504243575634 22.803731292202542 C 0.0 **** -0.24
13057 H 95.30531159612019 33.85170501556826 22.75349515702385 H 0.0 **** 0.06
13058 H 93.81749823326652 34.70770711152255 23.223309236111277 H 0.0 **** 0.06
13059 H 93.93650438571706 32.94332595783334 23.437193007142014 H 0.0 **** 0.06
13060 H 93.8168426777815 33.63507416509344 21.801466873850813 H 0.0 **** 0.06
13061 C 32.71033634357036 12.311963927715567 73.90080793424278 C 0.0 **** -0.24
13062 H 33.697880441716336 12.372872980371397 74.35599842370024 H 0.0 **** 0.06
13063 H 32.03384682731098 11.778573672170182 74.56927743340303 H 0.0 **** 0.06
13064 H 32.779926372320574 11.777491009024345 72.95303653566828 H 0.0 **** 0.06
13065 H 32.329070090043274 13.317223853047778 73.72326302632881 H 0.0 **** 0.06
13066 C 194.0139241511981 80.51150589991624 38.33949934010934 C 0.0 **** -0.24
13067 H 194.65839193188987 81.36663706013167 38.13434653557121 H 0.0 **** 0.06
13068 H 194.5586997124316 79.78343289400112 38.940621599548024 H 0.0 **** 0.06
13069 H 193.70975717486687 80.05137928955722 37.398664783230686 H 0.0 **** 0.06
13070 H 193.13099756282386 80.84523712265087 38.883395252767 H 0.0 **** 0.06
13071 C 15.22055556931511 148.6962322667489 67.21701297331782 C 0.0 **** -0.24
13072 H 15.786271275460308 148.17043925197868 67.985306601383 H 0.0 **** 0.06
13073 H 15.08912959347876 149.73723937400337 67.51023997235302 H 0.0 **** 0.06
13074 H 14.24459103205379 148.22504032504946 67.09854327932123 H 0.0 **** 0.06
13075 H 15.7633223553687 148.65045488942258 66.27264792791641 H 0.0 **** 0.06
13076 C 138.10188557373831 110.6151072491599 153.4487546607537 C 0.0 **** -0.24
13077 H 137.6545888005479 111.34589896245762 152.77451081428768 H 0.0 **** 0.06
13078 H 137.3315704440374 110.20712501551031 154.10424746060244 H 0.0 **** 0.06
13079 H 138.87131676956562 111.10009217202696 154.04953493948804 H 0.0 **** 0.06
13080 H 138.5484820308087 109.80917645907954 152.86659416420352 H 0.0 **** 0.06
13081 C 7.022162302752292 80.64870714797618 86.31915257897339 C 0.0 **** -0.24
13082 H 6.23486082132186 80.4319793244589 85.59674817510168 H 0.0 **** 0.06
13083 H 7.679448158861362 79.78310920794382 86.40932031309376 H 0.0 **** 0.06
13084 H 6.574053994533159 80.86784260534995 87.28864434864164 H 0.0 **** 0.06
13085 H 7.5980760957884 81.5095660462531 85.98107282522389 H 0.0 **** 0.06
13086 C 149.28191684993132 112.74104976096726 186.7684619438715 C 0.0 **** -0.24
13087 H 148.2470606129246 112.83729356500712 187.09553588206512 H 0.0 **** 0.06
13088 H 149.31314347539103 112.21681343138971 185.81268117550493 H 0.0 **** 0.06
13089 H 149.84655802332634 112.17745033540268 187.51107335742842 H 0.0 **** 0.06
13090 H 149.72042635874075 113.7320528318381 186.6539063087426 H 0.0 **** 0.06
13091 C 148.90196958033584 51.196435111756216 90.26433133776845 C 0.0 **** -0.24
13092 H 148.7239951859284 50.209128857515026 89.8386845977806 H 0.0 **** 0.06
13093 H 149.94659521472693 51.473384041547064 90.11745966885687 H 0.0 **** 0.06
13094 H 148.6776621885208 51.177446732289695 91.33083043181156 H 0.0 **** 0.06
13095 H 148.25962573216736 51.92578081567325 89.77035065262484 H 0.0 **** 0.06
13096 C 163.7058820936606 162.71553867506313 38.65094688534542 C 0.0 **** -0.24
13097 H 164.29181850916757 162.28875869391285 39.46561495860291 H 0.0 **** 0.06
13098 H 163.08187756979476 163.5211224923651 39.036184111871734 H 0.0 **** 0.06
13099 H 163.0736029492886 161.94098488995252 38.215953531620315 H 0.0 **** 0.06
13100 H 164.37715514399116 163.1076151171365 37.887662395415475 H 0.0 **** 0.06
13101 C 66.79197676191029 176.75465237497878 144.15560847723276 C 0.0 **** -0.24
13102 H 65.98634278283221 176.0306330861854 144.03579765639424 H 0.0 **** 0.06
13103 H 67.7513354970124 176.23654342514715 144.14537943526994 H 0.0 **** 0.06
13104 H 66.67181497461834 177.27819117414083 145.10370970516183 H 0.0 **** 0.06
13105 H 66.75902783768669 177.4741219244001 143.33618754575747 H 0.0 **** 0.06
13106 C 78.92961941429678 117.71706316245596 43.58677207757037 C 0.0 **** -0.24
13107 H 78.55353022288983 118.5391162758668 44.195205530066204 H 0.0 **** 0.06
13108 H 79.11476889877633 118.07091839853675 42.57238071775127 H 0.0 **** 0.06
13109 H 78.19136308814167 116.9155197723305 43.563013457423025 H 0.0 **** 0.06
13110 H 79.85881544737944 117.34269820308978 44.01648860504096 H 0.0 **** 0.06
13111 C 142.91678670151762 130.5036103134312 32.133152947761175 C 0.0 **** -0.24
13112 H 142.16402896850104 130.64825769552172 32.90851197849912 H 0.0 **** 0.06
13113 H 142.8982848556018 131.34943945618184 31.445828841486076 H 0.0 **** 0.06
13114 H 142.70291579003845 129.58532801954163 31.586584986737876 H 0.0 **** 0.06
13115 H 143.9023388620665 130.4301584051478 32.594376827419126 H 0.0 **** 0.06
13116 C 17.42403082810914 138.0142693619298 11.128754842207115 C 0.0 **** -0.24
13117 H 16.81462166201561 137.57600324218606 11.919039573703088 H 0.0 **** 0.06
13118 H 16.77475952942082 138.438835572842 10.362904987057362 H 0.0 **** 0.06
13119 H 18.053020472570893 137.24184813203993 10.685935286967378 H 0.0 **** 0.06
13120 H 18.05274379384973 138.7995196128693 11.548952105712772 H 0.0 **** 0.06
13121 C 191.452184425256 76.80807825347206 139.06491697889984 C 0.0 **** -0.24
13122 H 190.52123638165432 77.36107413427254 139.18787212162434 H 0.0 **** 0.06
13123 H 192.0121983140783 76.82790936319775 140.00015858744842 H 0.0 **** 0.06
13124 H 192.04567423752923 77.26943961384052 138.27528527295073 H 0.0 **** 0.06
13125 H 191.22908690607636 75.77620669800683 138.79576971836428 H 0.0 **** 0.06
13126 C 157.9967949292674 108.5730098380746 108.44655575002861 C 0.0 **** -0.24
13127 H 157.44288727708536 109.41190417940973 108.02522182215452 H 0.0 **** 0.06
13128 H 157.35040394622212 107.69621100287955 108.48887818102693 H 0.0 **** 0.06
13129 H 158.33213836051974 108.82671191288318 109.4517928891236 H 0.0 **** 0.06
13130 H 158.86239631829267 108.35688236566872 107.81875731368501 H 0.0 **** 0.06
13131 C 195.64187923265004 177.29850978956057 120.69400708060573 C 0.0 **** -0.24
13132 H 194.98191391921006 176.819102027858 121.41672532230302 H 0.0 **** 0.06
13133 H 196.53052732490977 176.68301681723713 120.5484403042517 H 0.0 **** 0.06
13134 H 195.93720358853807 178.27980949964945 121.0676768850044 H 0.0 **** 0.06
13135 H 195.11952779128555 177.4144010567694 119.74492181290645 H 0.0 **** 0.06
13136 C 191.11853666904315 149.15845026395067 28.420151578171414 C 0.0 **** -0.24
13137 H 191.50508629106358 149.41715173793386 27.4345742798713 H 0.0 **** 0.06
13138 H 190.05392168328905 148.93898342221502 28.346470535913113 H 0.0 **** 0.06
13139 H 191.27095396931009 149.99647164487385 29.10122120850565 H 0.0 **** 0.06
13140 H 191.64541952293166 148.28304553952512 28.7985596754512 H 0.0 **** 0.06
13141 C 121.00125841444171 164.27728815542105 60.78232948810171 C 0.0 **** -0.24
13142 H 121.60628087838728 165.14471593640582 60.51841180026054 H 0.0 **** 0.06
13143 H 121.23858578124009 163.4515068816558 60.11118963425179 H 0.0 **** 0.06
13144 H 119.9447943239962 164.52989039250593 60.689380966170006 H 0.0 **** 0.06
13145 H 121.21617603072275 163.98363114452098 61.810268533809506 H 0.0 **** 0.06
13146 C 189.9026590041605 148.68860372300867 133.1747368004924 C 0.0 **** -0.24
13147 H 190.12584173047333 149.75217094281228 133.08218436507292 H 0.0 **** 0.06
13148 H 190.0330590199138 148.37991643016093 134.21292547180622 H 0.0 **** 0.06
13149 H 190.57918951235135 148.1193213742659 132.5382914109121 H 0.0 **** 0.06
13150 H 188.87277686890098 148.50538784054393 132.86824306230343 H 0.0 **** 0.06
13151 C 135.62889810288578 175.9490603307264 60.508227171292106 C 0.0 **** -0.24
13152 H 136.00732319931512 175.36765830061958 61.3494155116079 H 0.0 **** 0.06
13153 H 134.54340684539676 175.8578853176802 60.46415292877572 H 0.0 **** 0.06
13154 H 136.06289071731726 175.57278022035985 59.58257802472542 H 0.0 **** 0.06
13155 H 135.9007738169547 176.99626469968578 60.63896078661719 H 0.0 **** 0.06
13156 C 45.65880858371759 26.041417839340795 103.7627988866708 C 0.0 **** -0.24
13157 H 45.93066722244738 27.085511918904672 103.91852980844871 H 0.0 **** 0.06
13158 H 46.230997429064516 25.63906773687873 102.92611434091137 H 0.0 **** 0.06
13159 H 44.59426525304224 25.97273016960804 103.54238756672919 H 0.0 **** 0.06
13160 H 45.88129274345414 25.470241592852034 104.66344818061984 H 0.0 **** 0.06
13161 C 5.889551869523245 9.8496537479665 88.51578227215157 C 0.0 **** -0.24
13162 H 6.64386851102546 10.620807959877403 88.3621129827311 H 0.0 **** 0.06
13163 H 5.420003193094402 9.60510592374603 87.56341308594324 H 0.0 **** 0.06
13164 H 5.132550896912932 10.215101266963877 89.21049181210572 H 0.0 **** 0.06
13165 H 6.360864131757495 8.95797713435686 88.92811615620985 H 0.0 **** 0.06
13166 C 142.03158267888986 186.86062226381787 86.78074688569836 C 0.0 **** -0.24
13167 H 141.24750716221038 187.09335281062152 86.0601105263892 H 0.0 **** 0.06
13168 H 142.64135790340697 186.04019528315223 86.40240256287373 H 0.0 **** 0.06
13169 H 141.5776527968749 186.57042027363536 87.72864517354816 H 0.0 **** 0.06
13170 H 142.65709207475254 187.73947110955118 86.93266250175739 H 0.0 **** 0.06
13171 C 1.2204126758256848 64.36889763159485 166.47487152505454 C 0.0 **** -0.24
13172 H 1.0625977814920304 65.31416634389342 166.9930618166584 H 0.0 **** 0.06
13173 H 2.0587042776251394 64.46802556719172 165.78547576129213 H 0.0 **** 0.06
13174 H 0.3201348582079504 64.10591448945524 165.9175722816852 H 0.0 **** 0.06
13175 H 1.4384543495414732 63.58660797090852 167.2019144383849 H 0.0 **** 0.06
13176 C 194.18299285731086 12.868195475488278 119.73486861878385 C 0.0 **** -0.24
13177 H 194.1762067536619 12.117964068024719 120.52552876383373 H 0.0 **** 0.06
13178 H 193.2023899676399 13.342776367155295 119.6763307807081 H 0.0 **** 0.06
13179 H 194.41219158354752 12.390295918331333 118.7823159203642 H 0.0 **** 0.06
13180 H 194.9391920865962 13.6218558627464 119.95387643195676 H 0.0 **** 0.06
13181 C 151.45694278482674 83.91543779116859 164.68632710190207 C 0.0 **** -0.24
13182 H 152.12038265161962 83.15267864963585 165.09280551157366 H 0.0 **** 0.06
13183 H 151.8109112598818 84.21818172735948 163.70051417612052 H 0.0 **** 0.06
13184 H 151.44839723929573 84.78051767232125 165.3510499784167 H 0.0 **** 0.06
13185 H 150.44796469160863 83.51247942552135 164.60307189847012 H 0.0 **** 0.06
13186 C 25.526959604219655 37.124149339324816 107.44252591947804 C 0.0 **** -0.24
13187 H 26.419684708950456 36.654109850725476 107.0314013358161 H 0.0 **** 0.06
13188 H 24.98217630716431 37.631221613430824 106.64603953872245 H 0.0 **** 0.06
13189 H 25.81550916980791 37.8484889928034 108.20391011082006 H 0.0 **** 0.06
13190 H 24.888985192720043 36.36231766956969 107.89064737838277 H 0.0 **** 0.06
13191 C 175.6432631186999 0.9774493256765027 32.70694365684014 C 0.0 **** -0.24
13192 H 176.25758750559302 0.717187498489011 31.84482300555355 H 0.0 **** 0.06
13193 H 176.16477214766047 1.715776664255003 33.31643013439705 H 0.0 **** 0.06
13194 H 175.45499007089208 0.08304835902126229 33.30196624617683 H 0.0 **** 0.06
13195 H 174.69432215843622 1.3912075505588177 32.36522758284039 H 0.0 **** 0.06
13196 C 82.04558069066545 0.5997377026880315 17.044009880911958 C 0.0 **** -0.24
13197 H 82.95549360645214 0.5196643731927679 16.449033885368976 H 0.0 **** 0.06
13198 H 81.39193177970583 -0.2451924413484221 16.82399654732376 H 0.0 **** 0.06
13199 H 81.53243243435165 1.52964902278174 16.79807595564938 H 0.0 **** 0.06
13200 H 82.30251326478529 0.594514240902555 18.102719956587876 H 0.0 **** 0.06
13201 C 152.81455293045997 184.99349394377978 186.2441650097378 C 0.0 **** -0.24
13202 H 151.820901226369 185.41234458547044 186.08524329376002 H 0.0 **** 0.06
13203 H 153.36761127265075 185.6232896378084 186.94071258703735 H 0.0 **** 0.06
13204 H 153.34572989802174 184.94819522573545 185.29283659014874 H 0.0 **** 0.06
13205 H 152.72296859749162 183.98816320026944 186.6561165883616 H 0.0 **** 0.06
13206 C 134.75206591220103 111.38747948209414 155.57205500332833 C 0.0 **** -0.24
13207 H 134.81993961296834 112.17350151101493 154.81985408855346 H 0.0 **** 0.06
13208 H 133.99845303500393 110.6593870992109 155.26890514665223 H 0.0 **** 0.06
13209 H 134.46999378077751 111.8249293123734 156.52966016067464 H 0.0 **** 0.06
13210 H 135.7176315561861 110.89231263276736 155.6688456759404 H 0.0 **** 0.06
13211 C 121.76778995104337 13.218161198719784 47.69424059922525 C 0.0 **** -0.24
13212 H 121.81188196836274 12.697448673574364 48.650633319490424 H 0.0 **** 0.06
13213 H 122.77890252625468 13.39704837664528 47.33005466331636 H 0.0 **** 0.06
13214 H 121.25457361364636 14.171637433962964 47.82349525576632 H 0.0 **** 0.06
13215 H 121.22331921427724 12.608067873220193 46.97342062421163 H 0.0 **** 0.06
13216 C 36.66416437691193 32.38473502157835 161.67019259683372 C 0.0 **** -0.24
13217 H 36.824786172493845 31.343756466107678 161.95310423999655 H 0.0 **** 0.06
13218 H 37.41302678235 32.679066156008346 160.9337762752806 H 0.0 **** 0.06
13219 H 36.752387085403626 33.0187386762894 162.55201615386653 H 0.0 **** 0.06
13220 H 35.66903624985734 32.494323726548245 161.24013679797275 H 0.0 **** 0.06
13221 C 26.90019430809815 19.121198750458802 48.60478436852134 C 0.0 **** -0.24
13222 H 27.58291692113005 18.70051488344278 49.34302389577533 H 0.0 **** 0.06
13223 H 27.297236552160655 18.95048176422206 47.60409268230859 H 0.0 **** 0.06
13224 H 26.796003174344833 20.19368203406576 48.776669652379326 H 0.0 **** 0.06
13225 H 25.925511637714635 18.642355744844224 48.69578842912364 H 0.0 **** 0.06
13226 C 93.78943153188925 132.26580345406245 65.95908834962722 C 0.0 **** -0.24
13227 H 94.33699553565464 132.01845359166936 66.86877752687974 H 0.0 **** 0.06
13228 H 92.7178229661717 132.2121732430715 66.15472473372978 H 0.0 **** 0.06
13229 H 94.05221623434304 131.5586329386928 65.17378987403112 H 0.0 **** 0.06
13230 H 94.05016821747907 133.27559047475313 65.64152064877698 H 0.0 **** 0.06
13231 C 193.2128060905464 75.46483077675407 105.94551620220946 C 0.0 **** -0.24
13232 H 193.92416742398834 74.67999448981192 105.69154040842739 H 0.0 **** 0.06
13233 H 192.50965262704358 75.09107480386797 106.68995180463867 H 0.0 **** 0.06
13234 H 192.66892445959917 75.76561336642266 105.05017141741456 H 0.0 **** 0.06
13235 H 193.74874064853154 76.32401173192062 106.35017400969613 H 0.0 **** 0.06
13236 C 39.0867042053528 144.99260194671365 108.05876700822262 C 0.0 **** -0.24
13237 H 39.87461363791064 145.62329797311213 108.46958194757588 H 0.0 **** 0.06
13238 H 38.66122947392908 145.4712349400756 107.17719263507013 H 0.0 **** 0.06
13239 H 38.30737647136755 144.84964186995347 108.8079521673784 H 0.0 **** 0.06
13240 H 39.50437786229821 144.02421116348202 107.78089164291694 H 0.0 **** 0.06
13241 C 181.3448135568778 130.00374587763707 81.69824406000384 C 0.0 **** -0.24
13242 H 182.32595065890865 130.11670310704534 81.23736411127766 H 0.0 **** 0.06
13243 H 181.12386054021061 130.88440480309905 82.30218472419773 H 0.0 **** 0.06
13244 H 181.34231408619524 129.11770518259007 82.3330395549076 H 0.0 **** 0.06
13245 H 180.5886678725396 129.89637919594492 80.92115477201534 H 0.0 **** 0.06
13246 C 116.5187289287295 103.8358380405526 151.37828954938516 C 0.0 **** -0.24
13247 H 115.88720784920591 103.49338881362624 150.5583009254301 H 0.0 **** 0.06
13248 H 116.57558835331884 103.05811022590007 152.14056584924163 H 0.0 **** 0.06
13249 H 116.09212724086649 104.73914164215 151.81211006908848 H 0.0 **** 0.06
13250 H 117.51831987407127 104.04978293392256 151.00056055023663 H 0.0 **** 0.06
13251 C 96.93717964990907 30.799491131262997 177.45752963042233 C 0.0 **** -0.24
13252 H 96.51212654281889 30.881244768504004 178.45869740638344 H 0.0 **** 0.06
13253 H 97.15583016547038 29.752973438039376 177.24134825382072 H 0.0 **** 0.06
13254 H 97.85616289605125 31.381991487770037 177.40537815005345 H 0.0 **** 0.06
13255 H 96.22253838928552 31.180496295876225 176.72803692033494 H 0.0 **** 0.06
13256 C 113.85843134549776 36.15379929921443 189.8995931788609 C 0.0 **** -0.24
13257 H 113.53130979171456 35.126760153228844 190.0647651666821 H 0.0 **** 0.06
13258 H 114.3335180822252 36.23154735905173 188.92189613774826 H 0.0 **** 0.06
13259 H 114.57250167332754 36.43551142324654 190.6737537169972 H 0.0 **** 0.06
13260 H 112.997220237103 36.82041687258527 189.94005441099682 H 0.0 **** 0.06
13261 C 151.3500012389803 162.8128403072726 16.89191506291155 C 0.0 **** -0.24
13262 H 151.98756836297014 162.17777745380795 16.27711752732114 H 0.0 **** 0.06
13263 H 150.73431857178295 162.18841315940787 17.540258566820768 H 0.0 **** 0.06
13264 H 150.70703739941177 163.4129626598227 16.249003467905823 H 0.0 **** 0.06
13265 H 151.97007933821493 163.47020884037096 17.501313489718854 H 0.0 **** 0.06
13266 C 106.66264937911535 185.01511231040666 132.80335239526804 C 0.0 **** -0.24
13267 H 107.16471403465064 184.04966950245574 132.75001456057078 H 0.0 **** 0.06
13268 H 107.30757718634095 185.78456049546293 132.3773097607627 H 0.0 **** 0.06
13269 H 106.4496166069838 185.2561921996792 133.84496711057065 H 0.0 **** 0.06
13270 H 105.72916272690878 184.97127710796386 132.24158033748674 H 0.0 **** 0.06
13271 C 3.497921353805907 46.03516457008868 65.9641542688882 C 0.0 **** -0.24
13272 H 3.291038087849593 46.459861313491444 64.98147238317237 H 0.0 **** 0.06
13273 H 2.560922564920837 45.89733832601793 66.5041393501784 H 0.0 **** 0.06
13274 H 4.144506794656522 46.71177937202718 66.52258721178862 H 0.0 **** 0.06
13275 H 3.9940302635066374 45.07261127577004 65.84563947287259 H 0.0 **** 0.06
13276 C 26.21701442276435 171.5977562395031 153.08059663923387 C 0.0 **** -0.24
13277 H 26.094356779639824 172.66829122465631 153.24439415611073 H 0.0 **** 0.06
13278 H 27.235765100710836 171.39450484719237 152.750180817649 H 0.0 **** 0.06
13279 H 25.51391737108308 171.26385302700322 152.31687490674946 H 0.0 **** 0.06
13280 H 26.022306235997945 171.06293969451607 154.0108598783672 H 0.0 **** 0.06
13281 C 33.96553241080315 150.2195924540913 173.25316736007215 C 0.0 **** -0.24
13282 H 34.54222469406869 150.0174851830134 174.15655065327633 H 0.0 **** 0.06
13283 H 34.00767526429769 149.3524740031624 172.5943872413905 H 0.0 **** 0.06
13284 H 34.38339296445102 151.08637056426065 172.74162661232504 H 0.0 **** 0.06
13285 H 32.928617513808206 150.42190127036602 173.522325922344 H 0.0 **** 0.06
13286 C 22.351309206337632 138.2136935021334 180.57995469447758 C 0.0 **** -0.24
13287 H 21.440304313524194 137.76335417483676 180.97311145802055 H 0.0 **** 0.06
13288 H 22.334004862375494 138.17370450412244 179.48988443694566 H 0.0 **** 0.06
13289 H 23.217707714403147 137.664607422099 180.94922125519085 H 0.0 **** 0.06
13290 H 22.41262116354241 139.25166658595387 180.9046751447548 H 0.0 **** 0.06
13291 C 140.9016940675739 110.86051350930245 131.04149240077595 C 0.0 **** -0.24
13292 H 141.0594232933752 109.98611762463986 131.67287581069428 H 0.0 **** 0.06
13293 H 140.39311515612246 111.63481842021798 131.61531211498948 H 0.0 **** 0.06
13294 H 140.28996287722924 110.58208504967561 130.18335241987717 H 0.0 **** 0.06
13295 H 141.86396539908444 111.2362354477614 130.69470921708808 H 0.0 **** 0.06
13296 C 91.7515146489826 31.097959931946022 176.79866450668624 C 0.0 **** -0.24
13297 H 92.42452193267485 31.412788742827587 177.59641741713375 H 0.0 **** 0.06
13298 H 92.33247217367648 30.852939533253817 175.9094822739607 H 0.0 **** 0.06
13299 H 91.0580088135489 31.907090232826974 176.5687416859539 H 0.0 **** 0.06
13300 H 91.19230129650475 30.219624124438354 177.12146060986987 H 0.0 **** 0.06
13301 C 115.12453611920228 124.26670417605249 138.9585157952701 C 0.0 **** -0.24
13302 H 115.34146144960874 123.25888459767646 139.31429073452736 H 0.0 **** 0.06
13303 H 114.8185253952762 124.88934970306488 139.79968324825168 H 0.0 **** 0.06
13304 H 114.32132289726758 124.22773562097095 138.2230773940437 H 0.0 **** 0.06
13305 H 116.01849056357594 124.68957103642043 138.49958686548447 H 0.0 **** 0.06
13306 C 51.3963055455921 45.742694068428506 38.53131853439169 C 0.0 **** -0.24
13307 H 51.62646139296902 45.25925689476361 39.481217206133636 H 0.0 **** 0.06
13308 H 51.64985557243051 46.801380470567096 38.59173527259884 H 0.0 **** 0.06
13309 H 50.332948975841305 45.634275134987945 38.31729090340349 H 0.0 **** 0.06
13310 H 51.97623335535803 45.2747001872807 37.73578528726591 H 0.0 **** 0.06
13311 C 194.587136735346 95.20919281865213 20.486618011931668 C 0.0 **** -0.24
13312 H 195.0821357681442 96.17981914188965 20.508599143289317 H 0.0 **** 0.06
13313 H 193.55280145331147 95.33752694079448 20.16429425331819 H 0.0 **** 0.06
13314 H 194.60513831439482 94.76897894370126 21.482419356862195 H 0.0 **** 0.06
13315 H 195.10582755263528 94.55314434990987 19.78837886898235 H 0.0 **** 0.06
13316 C 127.77242734513365 198.5824683674855 181.9875445531015 C 0.0 **** -0.24
13317 H 128.25841377406152 198.68349906569415 181.016760495451 H 0.0 **** 0.06
13318 H 128.10020218608375 199.38965183307394 182.64275306395245 H 0.0 **** 0.06
13319 H 128.0421475960309 197.62286596206854 182.42982378138083 H 0.0 **** 0.06
13320 H 126.69126440637487 198.63263410354278 181.85938147032897 H 0.0 **** 0.06
13321 C 130.24853769636707 87.50183935928644 134.67369310235736 C 0.0 **** -0.24
13322 H 130.59046125551083 86.83557325518032 133.88262837162657 H 0.0 **** 0.06
13323 H 130.33582718237528 86.99712712844783 135.63632169718625 H 0.0 **** 0.06
13324 H 129.2070121118262 87.77100112838056 134.49656859296223 H 0.0 **** 0.06
13325 H 130.86085023575595 88.4036559251372 134.67925374765443 H 0.0 **** 0.06
13326 C 65.67296723787281 131.36846644169717 84.10078691297724 C 0.0 **** -0.24
13327 H 65.5133299438037 131.39874716011377 85.17816274060789 H 0.0 **** 0.06
13328 H 65.90306264898759 130.3466677855202 83.79614396202217 H 0.0 **** 0.06
13329 H 66.50569190949494 132.0216468439296 83.8391981624072 H 0.0 **** 0.06
13330 H 64.77200168698982 131.70656014618794 83.58948622661359 H 0.0 **** 0.06
13331 C 34.77056286844277 122.8969035695813 108.71062228777552 C 0.0 **** -0.24
13332 H 35.28490957485968 122.22212917165137 109.39531979207979 H 0.0 **** 0.06
13333 H 34.29460985391981 123.69703081246794 109.27831923616995 H 0.0 **** 0.06
13334 H 34.01291979453316 122.34368602285207 108.15676402664951 H 0.0 **** 0.06
13335 H 35.49115137340752 123.32480614145084 108.01357115581433 H 0.0 **** 0.06
13336 C 191.13393041702707 81.29854335515239 160.30145543766787 C 0.0 **** -0.24
13337 H 190.52164603457112 81.62758143133959 161.14035736047148 H 0.0 **** 0.06
13338 H 192.08379003903443 81.83377364492165 160.31285427804423 H 0.0 **** 0.06
13339 H 190.61213524405082 81.50493058736652 159.36749303498513 H 0.0 **** 0.06
13340 H 191.31911527853535 80.2279147561986 160.38485591351866 H 0.0 **** 0.06
13341 C 36.03987509970075 61.32112892406957 29.8413365405533 C 0.0 **** -0.24
13342 H 37.100929754551615 61.41749177052901 29.61309131173836 H 0.0 **** 0.06
13343 H 35.64156334354854 62.291267252304806 30.136941059952775 H 0.0 **** 0.06
13344 H 35.90667557791947 60.609798703014576 30.657830224485537 H 0.0 **** 0.06
13345 H 35.50920375484465 60.96328405238205 28.95824385884451 H 0.0 **** 0.06
13346 C 41.037898848713894 15.449911732827559 95.1654940615179 C 0.0 **** -0.24
13347 H 41.11970401464063 14.426613331252184 95.53047482209615 H 0.0 **** 0.06
13348 H 40.51450153963239 16.057792229330488 95.90441575607758 H 0.0 **** 0.06
13349 H 40.48091746427485 15.457915620985375 94.22845224674609 H 0.0 **** 0.06
13350 H 42.034833435385025 15.857859018365673 94.99880535741096 H 0.0 **** 0.06
13351 C 69.9766640339791 34.00631395627707 141.38858315902849 C 0.0 **** -0.24
13352 H 69.93763098597525 34.58928449890928 140.46818082367517 H 0.0 **** 0.06
13353 H 69.92734929280948 34.67708528781441 142.24603143631225 H 0.0 **** 0.06
13354 H 70.90885873401699 33.4421201287706 141.42164453954874 H 0.0 **** 0.06
13355 H 69.13343125743133 33.3165847474703 141.4172148597532 H 0.0 **** 0.06
13356 C 64.58502846164725 118.04443844881126 128.73651812532995 C 0.0 **** -0.24
13357 H 65.5750122145376 118.49444488267065 128.65920014198161 H 0.0 **** 0.06
13358 H 63.85107257504853 118.69905946034271 128.2661206566021 H 0.0 **** 0.06
13359 H 64.3296735468831 117.9081241651242 129.78796854858675 H 0.0 **** 0.06
13360 H 64.58521182146899 117.07697862649195 128.23491357018128 H 0.0 **** 0.06
13361 C 61.965667912781356 25.135334088657743 5.293828009963342 C 0.0 **** -0.24
13362 H 61.35186039978254 24.496998264936224 4.6589718234245865 H 0.0 **** 0.06
13363 H 61.320711968460785 25.76190632810841 5.910017708172973 H 0.0 **** 0.06
13364 H 62.59844103406033 25.766776771066134 4.670272884328028 H 0.0 **** 0.06
13365 H 62.59068152851353 24.51578842860772 5.935881596152818 H 0.0 **** 0.06
13366 C 132.86946092375078 116.61418150709014 15.478644466621688 C 0.0 **** -0.24
13367 H 133.6224846469677 115.92196690464368 15.103455348508646 H 0.0 **** 0.06
13368 H 131.92172565553864 116.42920204085578 14.97344833554024 H 0.0 **** 0.06
13369 H 133.190324593207 117.63878360701293 15.28631204472515 H 0.0 **** 0.06
13370 H 132.74408933951108 116.46829622859909 16.551630551334938 H 0.0 **** 0.06
13371 C 173.29414039958849 106.16796200981526 64.9222099993952 C 0.0 **** -0.24
13372 H 173.97881203725984 106.32656402413704 65.75563236593288 H 0.0 **** 0.06
13373 H 172.64866291697595 107.03911484119647 64.81215893586028 H 0.0 **** 0.06
13374 H 172.68440042767207 105.28536191883501 65.11669634581224 H 0.0 **** 0.06
13375 H 173.86636331137794 106.01993980174632 64.00555025872215 H 0.0 **** 0.06
13376 C 91.51845836494633 17.18259084319807 156.8513785569466 C 0.0 **** -0.24
13377 H 92.06347370665455 16.29392210118425 157.1732370282578 H 0.0 **** 0.06
13378 H 90.71502844028402 16.88952120828013 156.17487708028023 H 0.0 **** 0.06
13379 H 92.19997283990378 17.859802651901845 156.33705486684678 H 0.0 **** 0.06
13380 H 91.09685402365318 17.68408142483385 157.7227003492085 H 0.0 **** 0.06
13381 C 150.241436124765 136.2198855843887 54.58506449611514 C 0.0 **** -0.24
13382 H 151.1146478770803 136.0547864238466 55.21661670790738 H 0.0 **** 0.06
13383 H 150.3632707831305 135.6764771252707 53.64838139487463 H 0.0 **** 0.06
13384 H 150.14026703506659 137.28486542897633 54.378355987413585 H 0.0 **** 0.06
13385 H 149.3496024300184 135.86231109518258 55.09947466548576 H 0.0 **** 0.06
13386 C 156.1096385345311 122.65333373875399 139.20164970067864 C 0.0 **** -0.24
13387 H 155.748003221937 121.76658938239768 138.6816919952565 H 0.0 **** 0.06
13388 H 157.1402784398769 122.49308427199549 139.51992191103403 H 0.0 **** 0.06
13389 H 155.48477343564628 122.84219493654382 140.07466730785757 H 0.0 **** 0.06
13390 H 156.064931293094 123.51106883318482 138.53103845852803 H 0.0 **** 0.06
13391 C 4.090780068195173 145.17783976749422 68.79539728879494 C 0.0 **** -0.24
13392 H 4.687416516969769 144.60694347603533 68.08327014100158 H 0.0 **** 0.06
13393 H 3.2209475602569455 145.59496931537382 68.28854127578502 H 0.0 **** 0.06
13394 H 4.694402438372272 145.9869599897847 69.2079723817517 H 0.0 **** 0.06
13395 H 3.7632526520679335 144.5217702790919 69.6020950687594 H 0.0 **** 0.06
13396 C 10.338261419250813 56.209039080083514 14.990337688460954 C 0.0 **** -0.24
13397 H 10.457104702764468 56.62978410216816 15.989314967672811 H 0.0 **** 0.06
13398 H 10.508564262162167 55.133889502675586 15.026420513023197 H 0.0 **** 0.06
13399 H 11.05981993281739 56.66917707636776 14.315283603553752 H 0.0 **** 0.06
13400 H 9.327772703570531 56.405979018023984 14.632006971987465 H 0.0 **** 0.06
13401 C 110.46057203194911 116.71404307720559 193.03075033677422 C 0.0 **** -0.24
13402 H 109.66455763287647 116.97139405270556 192.33163071484523 H 0.0 **** 0.06
13403 H 110.40866339322449 115.65077761680487 193.26451887910252 H 0.0 **** 0.06
13404 H 110.34022763312998 117.29316873116207 193.94637328744793 H 0.0 **** 0.06
13405 H 111.42705847850823 116.94117356319967 192.5817866913417 H 0.0 **** 0.06
13406 C 142.14113730524343 164.116805243889 107.5624486581099 C 0.0 **** -0.24
13407 H 141.874896880223 165.12997883059631 107.86223522180697 H 0.0 **** 0.06
13408 H 142.65137582512187 163.61660735799904 108.38652113264632 H 0.0 **** 0.06
13409 H 142.80255643392388 164.15656985355855 106.6964375643816 H 0.0 **** 0.06
13410 H 141.23783887330524 163.56525370443404 107.30491324406498 H 0.0 **** 0.06
13411 C 67.61764605902385 85.79986092708481 97.3532477069412 C 0.0 **** -0.24
13412 H 67.93303512593934 84.82947250807968 97.73730726792223 H 0.0 **** 0.06
13413 H 66.885781368528 86.23768349372892 98.03234428739802 H 0.0 **** 0.06
13414 H 67.16935386063437 85.67144710105538 96.36796466160249 H 0.0 **** 0.06
13415 H 68.48223089589811 86.45839913451556 97.27529802293779 H 0.0 **** 0.06
13416 C 16.304785245408823 176.0490373702616 167.25534264250746 C 0.0 **** -0.24
13417 H 15.22711688290957 176.0373907789635 167.09529915325055 H 0.0 **** 0.06
13418 H 16.80003822411669 175.5410830070391 166.42761772370596 H 0.0 **** 0.06
13419 H 16.539678616710717 175.53735731945136 168.1888560700109 H 0.0 **** 0.06
13420 H 16.653285314081018 177.080436830187 167.30858302075325 H 0.0 **** 0.06
13421 C 106.69929792616148 194.49566703780775 164.32117194060368 C 0.0 **** -0.24
13422 H 106.26165368784476 194.88287779491844 163.40096270582683 H 0.0 **** 0.06
13423 H 105.99074857210485 194.6205798813915 165.14073847441932 H 0.0 **** 0.06
13424 H 107.61585818955365 195.0408758391469 164.546085979617 H 0.0 **** 0.06
13425 H 106.92767019755925 193.43719465279628 164.19656858232477 H 0.0 **** 0.06
13426 C 62.087960653768036 107.11545495616951 8.226716801093033 C 0.0 **** -0.24
13427 H 62.18687195490838 106.83009686734977 9.274082544199985 H 0.0 **** 0.06
13428 H 61.03122079344918 107.20778878534793 7.973538918288909 H 0.0 **** 0.06
13429 H 62.546711744335724 106.35225332126652 7.59843392344365 H 0.0 **** 0.06
13430 H 62.58693699517313 108.070147699513 8.062436419549755 H 0.0 **** 0.06
13431 C 124.0801223515308 6.379495185454857 192.1625695757256 C 0.0 **** -0.24
13432 H 124.00318770185447 6.8608764674891916 191.18820579346584 H 0.0 **** 0.06
13433 H 123.10817167182836 6.399401956314875 192.65518125995146 H 0.0 **** 0.06
13434 H 124.8098137923705 6.911385413846233 192.77443140952929 H 0.0 **** 0.06
13435 H 124.40123527886021 5.3458076698063905 192.03221888985448 H 0.0 **** 0.06
13436 C 62.72867471061035 161.24166079429187 20.925392535632568 C 0.0 **** -0.24
13437 H 62.95710265863279 162.30670244822397 20.878428260058058 H 0.0 **** 0.06
13438 H 63.65087864707053 160.67927760161103 21.077171198792655 H 0.0 **** 0.06
13439 H 62.25966680184321 160.92848251775513 19.993325691058516 H 0.0 **** 0.06
13440 H 62.0476176653507 161.053681868589 21.756443041952537 H 0.0 **** 0.06
13441 C 41.18843411919801 133.75450745853948 120.84584375055513 C 0.0 **** -0.24
13442 H 41.86077311459897 133.10396432489938 121.40540124915836 H 0.0 **** 0.06
13443 H 41.12586290860705 134.72391875326605 121.34096422383666 H 0.0 **** 0.06
13444 H 40.197981769891726 133.30248023279478 120.80298126179113 H 0.0 **** 0.06
13445 H 41.57204663743403 133.88757763502645 119.83338067161836 H 0.0 **** 0.06
13446 C 167.91329828810058 63.54584630277179 80.85159981558195 C 0.0 **** -0.24
13447 H 167.644853393012 64.44642093567273 81.40414787484207 H 0.0 **** 0.06
13448 H 168.0897258009068 62.72948684855646 81.55214907272554 H 0.0 **** 0.06
13449 H 168.81751301840552 63.73085697233677 80.27234042614216 H 0.0 **** 0.06
13450 H 167.09826745466552 63.27847471332001 80.17849219274942 H 0.0 **** 0.06
13451 C 3.840627255670995 47.60136634776981 182.4010588150515 C 0.0 **** -0.24
13452 H 3.6164198204374145 47.633253490564925 183.46778930686696 H 0.0 **** 0.06
13453 H 4.862909199405948 47.252648395222636 182.25559028428916 H 0.0 **** 0.06
13454 H 3.732381276737158 48.59995333700533 181.97818707692005 H 0.0 **** 0.06
13455 H 3.149699033638683 46.91977510922975 181.90526929278562 H 0.0 **** 0.06
13456 C 190.89071718730835 15.047576765764944 182.96161446822168 C 0.0 **** -0.24
13457 H 190.20816055969735 14.237888371938254 182.70308044334206 H 0.0 **** 0.06
13458 H 190.68749637373216 15.910776564019471 182.32655846574326 H 0.0 **** 0.06
13459 H 191.91782753811185 14.718453868674544 182.8088398102226 H 0.0 **** 0.06
13460 H 190.74763753219088 15.322752413292505 184.00665287032976 H 0.0 **** 0.06
13461 C 163.92844136449276 111.082595255422 187.52937640893464 C 0.0 **** -0.24
13462 H 163.1465206175185 111.5858707343096 186.96010895494214 H 0.0 **** 0.06
13463 H 163.4927573199732 110.62217518291052 188.41549910311107 H 0.0 **** 0.06
13464 H 164.68249021017084 111.80955829912108 187.8308424109967 H 0.0 **** 0.06
13465 H 164.39172181060974 110.31467036912812 186.90989817740345 H 0.0 **** 0.06
13466 C 170.68594457801066 143.50803640256856 193.89388595817678 C 0.0 **** -0.24
13467 H 171.06796480549616 142.89327587302117 194.7091679518564 H 0.0 **** 0.06
13468 H 169.8450150144933 144.10230088566325 194.25108740193244 H 0.0 **** 0.06
13469 H 170.35745239544772 142.8651355402106 193.07769600833987 H 0.0 **** 0.06
13470 H 171.47570302776887 144.1710997496937 193.53941834205315 H 0.0 **** 0.06
13471 C 154.4485389632245 16.5401466101099 83.76918064906991 C 0.0 **** -0.24
13472 H 155.5258045620414 16.702019713101663 83.73549675422959 H 0.0 **** 0.06
13473 H 154.1423810373865 16.345163603941273 84.79743628596466 H 0.0 **** 0.06
13474 H 154.19166315500755 15.684173522711376 83.14556012038418 H 0.0 **** 0.06
13475 H 153.93567400371234 17.427567774112163 83.39883772063655 H 0.0 **** 0.06
13476 C 21.17779663929305 110.34908917954729 66.72229385107626 C 0.0 **** -0.24
13477 H 21.864434066846826 109.78526195911564 67.35408780505765 H 0.0 **** 0.06
13478 H 21.270350915182163 110.00763720786796 65.69109263469345 H 0.0 **** 0.06
13479 H 21.420469393471805 111.40979581972744 66.77730309287142 H 0.0 **** 0.06
13480 H 20.155656834662977 110.19123540486237 67.06649886163471 H 0.0 **** 0.06
13481 C 160.74634701117446 112.083223986689 48.81735154190186 C 0.0 **** -0.24
13482 H 161.29159202268963 112.70290670455313 49.529682856791496 H 0.0 **** 0.06
13483 H 161.44022044971217 111.40264369751551 48.32365749727566 H 0.0 **** 0.06
13484 H 160.2700172599384 112.72066188345798 48.07237464261951 H 0.0 **** 0.06
13485 H 159.9849771925099 111.50867240804052 49.34386948226545 H 0.0 **** 0.06
13486 C 87.66240370470771 15.841216677799025 84.70006041246103 C 0.0 **** -0.24
13487 H 87.00037504585885 16.66175204440316 84.97777692616387 H 0.0 **** 0.06
13488 H 88.46633529696126 16.22137179294083 84.06905899815013 H 0.0 **** 0.06
13489 H 87.09634602968234 15.088699647043939 84.15230364173982 H 0.0 **** 0.06
13490 H 88.08547790154952 15.395764451094635 85.59925070031761 H 0.0 **** 0.06
13491 C 11.604005691317695 54.539302519888565 103.76547572916581 C 0.0 **** -0.24
13492 H 11.488289084125597 53.98779020889228 102.83282439845323 H 0.0 **** 0.06
13493 H 11.036417352214983 54.04415551487665 104.55359730028891 H 0.0 **** 0.06
13494 H 11.234167938766916 55.556190534305074 103.63458079991912 H 0.0 **** 0.06
13495 H 12.659131871298825 54.56923838204597 104.04109741767752 H 0.0 **** 0.06
13496 C 193.0635511500002 58.51472659313774 175.59897838694928 C 0.0 **** -0.24
13497 H 193.28512476239982 58.975075710149255 174.6356495090988 H 0.0 **** 0.06
13498 H 192.9520788955637 57.43834433349643 175.4702234291542 H 0.0 **** 0.06
13499 H 192.13767466917014 58.93178303848569 175.9953511283619 H 0.0 **** 0.06
13500 H 193.8791255681884 58.71642959547441 176.2934536927977 H 0.0 **** 0.06
13501 C 103.28307275261571 133.27266272514407 127.39300774283623 C 0.0 **** -0.24
13502 H 102.6586312025839 133.80929820884387 128.10688572829426 H 0.0 **** 0.06
13503 H 104.26759733233249 133.73887152292355 127.34919677379418 H 0.0 **** 0.06
13504 H 102.82039444487023 133.30777847617708 126.40721956687409 H 0.0 **** 0.06
13505 H 103.3867979420479 132.2346378065339 127.70957691966981 H 0.0 **** 0.06
13506 C 55.12097619955085 34.25505389637884 20.9097239429326 C 0.0 **** -0.24
13507 H 55.18082692695418 34.65589491141475 19.89754605953391 H 0.0 **** 0.06
13508 H 54.74255704538233 35.02390641497705 21.58291739080184 H 0.0 **** 0.06
13509 H 56.113224540808176 33.94198090017673 21.235392827079465 H 0.0 **** 0.06
13510 H 54.44797294559294 33.397684572687936 20.92104411020597 H 0.0 **** 0.06
13511 C 148.72919936687484 175.56202663171186 159.33087491657108 C 0.0 **** -0.24
13512 H 149.54162660805102 176.16028502129777 158.9192627888172 H 0.0 **** 0.06
13513 H 149.0933027864737 174.5576747351417 159.55066955363856 H 0.0 **** 0.06
13514 H 147.91831383648272 175.50323684813253 158.60436950337578 H 0.0 **** 0.06
13515 H 148.3641986197397 176.0258489995981 160.24708610479905 H 0.0 **** 0.06
13516 C 155.0097903025245 182.52898870447055 50.56938113583429 C 0.0 **** -0.24
13517 H 154.62994474064388 181.9201561890843 49.74915495261932 H 0.0 **** 0.06
13518 H 155.84597038035253 182.01649386916105 51.04498139055876 H 0.0 **** 0.06
13519 H 154.21755797641643 182.68859881296783 51.300254735970086 H 0.0 **** 0.06
13520 H 155.34685314348144 183.49096740623898 50.181242842539675 H 0.0 **** 0.06
13521 C 175.97697642017147 146.89445741129313 23.5487387894876 C 0.0 **** -0.24
13522 H 175.09620664208958 147.09245095212495 22.93750573402116 H 0.0 **** 0.06
13523 H 176.86311024209115 147.27602780958 23.041186259783444 H 0.0 **** 0.06
13524 H 176.07941167986087 145.81990670939825 23.70180903267763 H 0.0 **** 0.06
13525 H 175.8682370755979 147.39092266298462 24.512742254410966 H 0.0 **** 0.06
13526 C 147.46907292852427 27.873114045168478 148.53342650904594 C 0.0 **** -0.24
13527 H 147.03543942975676 27.33701230621348 147.6891299969088 H 0.0 **** 0.06
13528 H 146.90966983045973 27.63807594722104 149.43875514665544 H 0.0 **** 0.06
13529 H 147.4238832760572 28.945781780770105 148.3453400789557 H 0.0 **** 0.06
13530 H 148.50897905717775 27.57047429200935 148.6595103018929 H 0.0 **** 0.06
13531 C 160.8957759557934 171.3678045151203 160.91396134282658 C 0.0 **** -0.24
13532 H 161.742014921699 171.95051149899257 160.55008105301738 H 0.0 **** 0.06
13533 H 160.07031527016193 171.44469955792044 160.20618419263982 H 0.0 **** 0.06
13534 H 160.58124239461952 171.75215119302896 161.88386130486325 H 0.0 **** 0.06
13535 H 161.19232260211436 170.32336887262855 161.01473324222087 H 0.0 **** 0.06
13536 C 86.61331075975369 38.95126506003804 4.451107035772765 C 0.0 **** -0.24
13537 H 87.18190418010607 38.445342529692766 5.231088181491373 H 0.0 **** 0.06
13538 H 87.0854869224049 38.774503071086684 3.4846084286275527 H 0.0 **** 0.06
13539 H 86.59130036887174 40.02192080702156 4.654821297641348 H 0.0 **** 0.06
13540 H 85.5947650819617 38.56397816393489 4.434607460926742 H 0.0 **** 0.06
13541 C 21.673239102147363 97.12951760284125 51.0283006909183 C 0.0 **** -0.24
13542 H 21.047897997418744 98.00906674189821 50.871451967377695 H 0.0 **** 0.06
13543 H 22.556332833782733 97.41004656992754 51.60290373255157 H 0.0 **** 0.06
13544 H 21.979529446806765 96.72521914520337 50.06389535706431 H 0.0 **** 0.06
13545 H 21.107134633552988 96.3747995678147 51.575741223319014 H 0.0 **** 0.06
13546 C 74.76139193312821 184.34501380744467 106.1428775573886 C 0.0 **** -0.24
13547 H 75.11905504805044 183.48242723433853 105.5811942224766 H 0.0 **** 0.06
13548 H 75.6098379791782 184.86905434917264 106.5835174461705 H 0.0 **** 0.06
13549 H 74.09064234980335 184.00930426095127 106.9345686630819 H 0.0 **** 0.06
13550 H 74.22576038259942 185.01846273216165 105.47403971215505 H 0.0 **** 0.06
13551 C 168.41328857510388 154.77020054819002 129.0517702643085 C 0.0 **** -0.24
13552 H 167.6577249395627 155.23508086320794 129.6850415852854 H 0.0 **** 0.06
13553 H 168.94481204313755 154.00815881702596 129.62186314095703 H 0.0 **** 0.06
13554 H 169.11933973131667 155.52869713131224 128.71160940309395 H 0.0 **** 0.06
13555 H 167.93107588463144 154.30964452698845 128.18972980858487 H 0.0 **** 0.06
13556 C 197.94857644482227 17.350815519624618 156.902802477946 C 0.0 **** -0.24
13557 H 197.0734909308435 17.70836046684981 156.36119873782232 H 0.0 **** 0.06
13558 H 198.2863762798166 18.12263909962489 157.59633428949468 H 0.0 **** 0.06
13559 H 198.74654842294458 17.124114834656496 156.19535197402507 H 0.0 **** 0.06
13560 H 197.68922894395885 16.45062754474985 157.46007365705847 H 0.0 **** 0.06
13561 C 100.46261687600946 87.13848536507882 87.03284842267806 C 0.0 **** -0.24
13562 H 99.81325243031785 88.00329422853676 87.17310231132126 H 0.0 **** 0.06
13563 H 101.18772872869616 87.0931336652759 87.84601551989175 H 0.0 **** 0.06
13564 H 100.98768019225764 87.2289368379245 86.08233397719073 H 0.0 **** 0.06
13565 H 99.86156681854098 86.22945663571085 87.03172192978866 H 0.0 **** 0.06
13566 C 152.92940860694551 162.79896529477566 95.95392336791647 C 0.0 **** -0.24
13567 H 153.5528288475414 163.1307582319401 96.78464374725792 H 0.0 **** 0.06
13568 H 151.90867343652138 162.64276774578514 96.3063375724814 H 0.0 **** 0.06
13569 H 153.32386378677052 161.86430190501449 95.5554762095521 H 0.0 **** 0.06
13570 H 152.93259219720215 163.55751085537577 95.17199680380517 H 0.0 **** 0.06
13571 C 63.08792245335357 31.514970965370964 65.17068642256379 C 0.0 **** -0.24
13572 H 63.658414856642295 32.05958884163124 65.9222983203901 H 0.0 **** 0.06
13573 H 63.349666351098406 31.88276558202267 64.17840171494242 H 0.0 **** 0.06
13574 H 62.02210933487177 31.663896064496953 65.34463584043758 H 0.0 **** 0.06
13575 H 63.32197619033798 30.451835876396956 65.23667385321681 H 0.0 **** 0.06
13576 C 105.67562137487639 78.05445101475607 70.17113627106562 C 0.0 **** -0.24
13577 H 106.01914481776782 77.02392657260691 70.25455494820073 H 0.0 **** 0.06
13578 H 105.21325495923665 78.20480882037532 69.19523436777337 H 0.0 **** 0.06
13579 H 106.5242496452681 78.72993143774272 70.27884392142022 H 0.0 **** 0.06
13580 H 104.9463352796675 78.2589489948491 70.95426399070104 H 0.0 **** 0.06
13581 C 191.18762683146042 107.2195318203361 103.13395475332504 C 0.0 **** -0.24
13582 H 190.39545933106854 107.14399489314661 102.38889333862085 H 0.0 **** 0.06
13583 H 191.61406603120412 106.23222225008715 103.31269790444645 H 0.0 **** 0.06
13584 H 190.77502501563353 107.6105354256627 104.06408625377605 H 0.0 **** 0.06
13585 H 191.96504709481596 107.89141405881765 102.77055460334975 H 0.0 **** 0.06
13586 C 128.5279205717971 186.72863987953264 92.70200999478169 C 0.0 **** -0.24
13587 H 129.5700980388834 186.66385059320183 92.39020052408432 H 0.0 **** 0.06
13588 H 127.89677167530473 186.23293606992345 91.96408079972173 H 0.0 **** 0.06
13589 H 128.23747702412894 187.77542516540652 92.78456160244548 H 0.0 **** 0.06
13590 H 128.4066788560122 186.24109526632085 93.66921233866134 H 0.0 **** 0.06
13591 C 130.8346268391674 67.79194130537832 9.891960238462104 C 0.0 **** -0.24
13592 H 131.82411337361782 68.06025383524614 9.524014004230082 H 0.0 **** 0.06
13593 H 130.26199626820443 67.32657513076916 9.089434697394779 H 0.0 **** 0.06
13594 H 130.3191277358161 68.68987171318976 10.232969540247666 H 0.0 **** 0.06
13595 H 130.93280380794772 67.09202318687642 10.722352081840882 H 0.0 **** 0.06
13596 C 7.051123283779162 39.703418821476774 170.8508220067464 C 0.0 **** -0.24
13597 H 7.455543689510165 38.79746318032758 171.30241828357157 H 0.0 **** 0.06
13598 H 7.833752976483936 40.206289729909415 170.28194388665239 H 0.0 **** 0.06
13599 H 6.688047433440289 40.36797233551529 171.63452809097305 H 0.0 **** 0.06
13600 H 6.228898352538636 39.44127220197679 170.18561453775726 H 0.0 **** 0.06
13601 C 87.98751368872368 118.24507790780251 111.31221827330069 C 0.0 **** -0.24
13602 H 86.92107427551082 118.02842097888725 111.24552158702647 H 0.0 **** 0.06
13603 H 88.27486162517977 118.3348980009655 112.36002512858624 H 0.0 **** 0.06
13604 H 88.20089568811676 119.18127035218944 110.79538606320625 H 0.0 **** 0.06
13605 H 88.5516658305406 117.43706646993238 110.84706394743142 H 0.0 **** 0.06
13606 C 4.078881969460092 43.04002012583159 90.86084355867979 C 0.0 **** -0.24
13607 H 3.903065852524307 43.86891767978551 90.17551136849153 H 0.0 **** 0.06
13608 H 3.7575092139539947 42.10852073760978 90.39416257730966 H 0.0 **** 0.06
13609 H 3.513426493594558 43.20146727229471 91.7782189401313 H 0.0 **** 0.06
13610 H 5.142498809308506 42.98174005331515 91.09462413962797 H 0.0 **** 0.06
13611 C 33.70427350229154 86.22473042848995 76.37347887041204 C 0.0 **** -0.24
13612 H 32.6981965521976 86.3504131085748 75.97442662083893 H 0.0 **** 0.06
13613 H 34.43493946675312 86.45913136849745 75.59886984264989 H 0.0 **** 0.06
13614 H 33.83915525296884 85.1930129122268 76.69957177293816 H 0.0 **** 0.06
13615 H 33.84524631008027 86.8947438653378 77.22146845725155 H 0.0 **** 0.06
13616 C 54.63792843622144 44.03105291070666 108.91515430327536 C 0.0 **** -0.24
13617 H 54.3828047430012 43.13414091528625 108.35133833916828 H 0.0 **** 0.06
13618 H 55.053758673189435 44.779651658448 108.240294447264 H 0.0 **** 0.06
13619 H 55.373743974620695 43.78271220412327 109.68049153950429 H 0.0 **** 0.06
13620 H 53.739880819724775 44.42819177788947 109.39005420471466 H 0.0 **** 0.06
13621 C 29.5622850468788 31.930832345935755 2.21971844737692 C 0.0 **** -0.24
13622 H 29.231212872626315 31.556384217852724 3.1882072136573925 H 0.0 **** 0.06
13623 H 28.814100865429964 31.694463819452466 1.4629298120043472 H 0.0 **** 0.06
13624 H 30.50982994866206 31.462595937761648 1.9535831369694279 H 0.0 **** 0.06
13625 H 29.69517933464374 33.01139117623484 2.274731255318386 H 0.0 **** 0.06
13626 C 83.70082785046125 126.67625398117346 105.4590218533198 C 0.0 **** -0.24
13627 H 83.49521831298682 127.28938173746869 106.33651074598009 H 0.0 **** 0.06
13628 H 83.80846833352385 125.6341342914721 105.761107565271 H 0.0 **** 0.06
13629 H 84.62289509132722 127.01550459205501 104.98693530402679 H 0.0 **** 0.06
13630 H 82.87588751951336 126.7661777311761 104.75265520608966 H 0.0 **** 0.06
13631 C 84.32960521778449 153.94763625999983 45.711681126433774 C 0.0 **** -0.24
13632 H 83.61471791884418 154.27834365964145 44.95773121788267 H 0.0 **** 0.06
13633 H 85.12333857938549 153.37364931033125 45.232588197960354 H 0.0 **** 0.06
13634 H 83.82062789075107 153.3233205548142 46.44604048217437 H 0.0 **** 0.06
13635 H 84.75885587319394 154.81720773956954 46.209216045640574 H 0.0 **** 0.06
13636 C 48.898277572276726 93.72276441532674 190.34716737763864 C 0.0 **** -0.24
13637 H 48.16740402013919 92.91518443624946 190.30233305664194 H 0.0 **** 0.06
13638 H 49.03261455391254 94.14601161099941 189.35143996460724 H 0.0 **** 0.06
13639 H 49.85011513883964 93.33225369160306 190.70803621422422 H 0.0 **** 0.06
13640 H 48.54222527763565 94.49703835745572 191.02652685676642 H 0.0 **** 0.06
13641 C 33.02558601450485 84.84742981484666 73.20847291079998 C 0.0 **** -0.24
13642 H 32.80447378771447 84.03716669069462 72.51422459794061 H 0.0 **** 0.06
13643 H 32.2165922208317 84.93512305860497 73.9335367799178 H 0.0 **** 0.06
13644 H 33.12135838402952 85.78217815939712 72.65646579317351 H 0.0 **** 0.06
13645 H 33.95892665276867 84.63505544807865 73.72867675195062 H 0.0 **** 0.06
13646 C 52.524696888915884 152.56957245798446 98.60979251073468 C 0.0 **** -0.24
13647 H 52.38809556110441 152.64093271806018 97.5305657129386 H 0.0 **** 0.06
13648 H 51.57604104498232 152.3091155717355 99.07928690351832 H 0.0 **** 0.06
13649 H 52.87037826283846 153.52909715221693 98.996186689105 H 0.0 **** 0.06
13650 H 53.264035357377296 151.80054967149238 98.83214639833852 H 0.0 **** 0.06
13651 C 95.18319045060232 35.29275393211128 102.00341079189036 C 0.0 **** -0.24
13652 H 94.98477708437008 34.25935086095399 102.28730673462078 H 0.0 **** 0.06
13653 H 96.25867587452993 35.47211423762158 102.01670311326527 H 0.0 **** 0.06
13654 H 94.693666622942 35.96372049475369 102.70843416033242 H 0.0 **** 0.06
13655 H 94.79699537808565 35.47432515398356 100.99981925854144 H 0.0 **** 0.06
13656 C 51.458825791528355 31.13441133150708 85.7839915444649 C 0.0 **** -0.24
13657 H 51.773983024691034 31.124746301060156 86.82842882582523 H 0.0 **** 0.06
13658 H 51.00973327593846 32.099318010869766 85.54922210575532 H 0.0 **** 0.06
13659 H 50.72660073391437 30.343151824253553 85.61950578391085 H 0.0 **** 0.06
13660 H 52.32358589678496 30.968519884890583 85.1428584588744 H 0.0 **** 0.06
13661 C 140.01692960889523 14.112781321232774 68.58249467532295 C 0.0 **** -0.24
13662 H 139.26835223744814 14.567161675402133 67.93340138764665 H 0.0 **** 0.06
13663 H 139.5213715521842 13.489975639466707 69.32820172818165 H 0.0 **** 0.06
13664 H 140.5867304595764 14.894859249404504 69.08364512530045 H 0.0 **** 0.06
13665 H 140.68988964578426 13.498536921602636 67.98560251343022 H 0.0 **** 0.06
13666 C 177.2800076700571 193.41069300458287 111.6746558095212 C 0.0 **** -0.24
13667 H 176.96279690851014 193.87736933200742 112.60676481699014 H 0.0 **** 0.06
13668 H 178.07214198276276 194.0082197843895 111.22072110742786 H 0.0 **** 0.06
13669 H 176.43232363803986 193.3504152461809 110.99177875973214 H 0.0 **** 0.06
13670 H 177.65368464112947 192.4078385887637 111.87924370007127 H 0.0 **** 0.06
13671 C 126.82668059574391 84.42215030727291 22.12825792432784 C 0.0 **** -0.24
13672 H 127.51911572785949 85.25669555825101 22.016050512335354 H 0.0 **** 0.06
13673 H 126.70603138195133 84.19128781910229 23.186767237127754 H 0.0 **** 0.06
13674 H 127.22235522578069 83.54994885082053 21.60885358604162 H 0.0 **** 0.06
13675 H 125.86045430952507 84.69235987757477 21.70263223554244 H 0.0 **** 0.06
13676 C 192.58850885662534 40.3189423332376 80.40560372993554 C 0.0 **** -0.24
13677 H 193.39021291201166 40.75475598261261 79.80842555008326 H 0.0 **** 0.06
13678 H 191.62828021322437 40.53601190414756 79.93740885407095 H 0.0 **** 0.06
13679 H 192.60903971364712 40.74485456147997 81.40765407451511 H 0.0 **** 0.06
13680 H 192.72758834626427 39.23943457173169 80.46622201267945 H 0.0 **** 0.06
13681 C 22.154054678095974 66.5573789876037 47.46214143531968 C 0.0 **** -0.24
13682 H 22.531469107275 66.09158097153816 48.372162439046804 H 0.0 **** 0.06
13683 H 21.137824440389267 66.21389204681977 47.272551149544384 H 0.0 **** 0.06
13684 H 22.793625419717785 66.28387526819931 46.62240118733877 H 0.0 **** 0.06
13685 H 22.15578904869207 67.64150924210314 47.58151185773697 H 0.0 **** 0.06
13686 C 0.3556675490137309 143.19596698166433 188.59856228106102 C 0.0 **** -0.24
13687 H 0.5429168758346634 143.62554157599425 189.58304186686166 H 0.0 **** 0.06
13688 H 1.3036301991933215 142.91610389619356 188.1382806661633 H 0.0 **** 0.06
13689 H -0.15013242582045905 143.93129183028108 187.97272329446457 H 0.0 **** 0.06
13690 H -0.27402650433430153 142.31233954975397 188.70159450570677 H 0.0 **** 0.06
13691 C 77.39552139123138 86.95536958353787 99.96824108273788 C 0.0 **** -0.24
13692 H 77.62424877819318 87.79604435361722 99.31247251309256 H 0.0 **** 0.06
13693 H 76.37567981708801 86.61736170046368 99.78244406162065 H 0.0 **** 0.06
13694 H 77.4918663748561 87.26926036036136 101.00737191949136 H 0.0 **** 0.06
13695 H 78.09040849686126 86.14051937814787 99.76923681177684 H 0.0 **** 0.06
13696 C 181.01360981343433 184.9835820792519 149.42323981388031 C 0.0 **** -0.24
13697 H 181.47294763332889 185.74908186202657 150.04910045705014 H 0.0 **** 0.06
13698 H 181.74095935868465 184.19665279594204 149.2197879554447 H 0.0 **** 0.06
13699 H 180.68871146311452 185.43024365843758 148.4839160344098 H 0.0 **** 0.06
13700 H 180.15446727454125 184.5593317971971 149.94189620988314 H 0.0 **** 0.06
13701 C 169.67991477972464 88.90170750459265 183.7835778180922 C 0.0 **** -0.24
13702 H 170.24723076259568 89.74182190882354 183.381053185908 H 0.0 **** 0.06
13703 H 169.637851587824 88.10442094444457 183.0414555148796 H 0.0 **** 0.06
13704 H 168.66860073255037 89.22873942312529 184.0247907945042 H 0.0 **** 0.06
13705 H 170.16827104005614 88.53374407163349 184.68524057711903 H 0.0 **** 0.06
13706 C 115.22441459658174 10.992418262424103 111.25819596566615 C 0.0 **** -0.24
13707 H 116.21906853311776 10.794254626362537 110.8593546525135 H 0.0 **** 0.06
13708 H 114.5750171435161 11.342855514795076 110.45576879193081 H 0.0 **** 0.06
13709 H 115.29035162086097 11.757567233218246 112.03302632658222 H 0.0 **** 0.06
13710 H 114.81470255772925 10.077776218844747 111.68490620151204 H 0.0 **** 0.06
13711 C 4.417082632564629 82.24327306930894 70.46550987498132 C 0.0 **** -0.24
13712 H 4.104640770869004 81.5482071244976 71.24410737874429 H 0.0 **** 0.06
13713 H 5.133941654868423 82.95299832658384 70.8787530108943 H 0.0 **** 0.06
13714 H 3.5480559347983203 82.78170188040929 70.08885396824378 H 0.0 **** 0.06
13715 H 4.882630939355636 81.68914902033578 69.65053871487915 H 0.0 **** 0.06
13716 C 198.62579738851042 25.27245031601919 17.683341476693897 C 0.0 **** -0.24
13717 H 199.58539195604772 25.134526312786363 18.181334360165096 H 0.0 **** 0.06
13718 H 198.53785282664938 24.563507327807145 16.860370477617096 H 0.0 **** 0.06
13719 H 198.5597459259838 26.28967941589866 17.29651740943723 H 0.0 **** 0.06
13720 H 197.81881880359276 25.102604062372677 18.39775700475093 H 0.0 **** 0.06
13721 C 140.95637454710368 83.02587454441726 141.7999168148893 C 0.0 **** -0.24
13722 H 141.56888265388264 82.73695089038438 140.9459943256382 H 0.0 **** 0.06
13723 H 140.59412138110685 84.04503233499003 141.658266666809 H 0.0 **** 0.06
13724 H 141.55412041731913 82.9757532797733 142.71035540642558 H 0.0 **** 0.06
13725 H 140.10690060553094 82.34744314517977 141.88510228140638 H 0.0 **** 0.06
13726 C 82.57844511277679 72.81892691148452 4.145023625841702 C 0.0 **** -0.24
13727 H 82.36934129571955 73.83004725565573 4.495893900062583 H 0.0 **** 0.06
13728 H 82.40085334084932 72.76357238870823 3.070716064913995 H 0.0 **** 0.06
13729 H 81.92511344580353 72.11487223807428 4.658490655592658 H 0.0 **** 0.06
13730 H 83.61904728293715 72.56957310253857 4.355329376488953 H 0.0 **** 0.06
13731 C 95.21172278215022 125.46325814850783 26.3344504612992 C 0.0 **** -0.24
13732 H 94.6433241911748 125.7541961921242 25.450357250318135 H 0.0 **** 0.06
13733 H 95.7676626931858 124.54979867994211 26.1237509312665 H 0.0 **** 0.06
13734 H 94.52678731557026 125.28863909932656 27.164609055497806 H 0.0 **** 0.06
13735 H 95.90731690309696 126.25958409176783 26.5968270337641 H 0.0 **** 0.06
13736 C 2.7070191758564306 34.85089968772235 49.660460150114204 C 0.0 **** -0.24
13737 H 3.7039121517611875 34.76877181832208 49.228188158414866 H 0.0 **** 0.06
13738 H 2.418658627074649 35.90119106976161 49.71186935595392 H 0.0 **** 0.06
13739 H 2.710301645806794 34.42487650358349 50.66476348983406 H 0.0 **** 0.06
13740 H 1.9952270196306472 34.30822695631787 49.03866765415688 H 0.0 **** 0.06
13741 C 171.0451168288928 195.49467268076643 104.59944152300801 C 0.0 **** -0.24
13742 H 171.94255486863688 195.11548207230305 104.1107553995264 H 0.0 **** 0.06
13743 H 170.44531964369145 194.6561839812175 104.95518264676184 H 0.0 **** 0.06
13744 H 170.46450483863143 196.08092306001708 103.88763826499019 H 0.0 **** 0.06
13745 H 171.32889938302918 196.12298063763615 105.44292431878205 H 0.0 **** 0.06
13746 C 15.381739169897642 53.6512865590182 112.06723304933459 C 0.0 **** -0.24
13747 H 16.38424002177024 54.05490048338805 112.20983223413893 H 0.0 **** 0.06
13748 H 14.797064341721736 54.33973299766481 111.45509696897761 H 0.0 **** 0.06
13749 H 14.899481594668742 53.52577461271321 113.03644925649988 H 0.0 **** 0.06
13750 H 15.447026158933497 52.68602023960483 111.56497989861543 H 0.0 **** 0.06
13751 C 70.08546951338859 165.56372629992546 81.77451499466821 C 0.0 **** -0.24
13752 H 69.39327769587878 165.48718062447344 80.93664692265298 H 0.0 **** 0.06
13753 H 69.67661311534337 166.24405111979712 82.52269565723554 H 0.0 **** 0.06
13754 H 71.0435442381404 165.94457782347976 81.42096355863427 H 0.0 **** 0.06
13755 H 70.22807664758587 164.57858811300082 82.21853373050666 H 0.0 **** 0.06
13756 C 127.8533952316559 152.8301986589659 158.44699274610065 C 0.0 **** -0.24
13757 H 128.50912037599812 151.98555589701908 158.6586288109118 H 0.0 **** 0.06
13758 H 126.87795872594808 152.65594844980296 158.9029523996328 H 0.0 **** 0.06
13759 H 127.73559027955025 152.93836612329267 157.3684003794678 H 0.0 **** 0.06
13760 H 128.2886221878416 153.74010684317295 158.85829098471987 H 0.0 **** 0.06
13761 C 28.774998158800372 81.40616767737916 101.5458629455342 C 0.0 **** -0.24
13762 H 28.413064014160398 80.47162303489134 101.11679339821015 H 0.0 **** 0.06
13763 H 28.35434819858338 81.53372538894737 102.54406651019389 H 0.0 **** 0.06
13764 H 28.4680348993802 82.23919343402045 100.91287531197267 H 0.0 **** 0.06
13765 H 29.862348753002095 81.37983092049669 101.6100090448237 H 0.0 **** 0.06
13766 C 27.504785442075843 161.7798365741902 158.61455842113102 C 0.0 **** -0.24
13767 H 26.50782082493612 161.5365317027634 158.2472289051949 H 0.0 **** 0.06
13768 H 27.81725287887403 162.74096573882807 158.207069159779 H 0.0 **** 0.06
13769 H 28.205451784133345 161.00557533827825 158.30219181678763 H 0.0 **** 0.06
13770 H 27.4863313262137 161.8347572402642 159.70296038991157 H 0.0 **** 0.06
13771 C 25.146643811864806 102.78825391669753 164.21737198180637 C 0.0 **** -0.24
13772 H 24.65413345999721 102.23587455304903 165.01748839168448 H 0.0 **** 0.06
13773 H 24.554878959831854 102.7104200118475 163.30572626715144 H 0.0 **** 0.06
13774 H 26.13843436523831 102.37034477235963 164.0456334569551 H 0.0 **** 0.06
13775 H 25.23806042742393 103.83653746328923 164.50361194087105 H 0.0 **** 0.06
13776 C 22.70079353079727 1.473278970894171 41.981069494297174 C 0.0 **** -0.24
13777 H 22.992897587067745 2.206479815138721 42.732504396987224 H 0.0 **** 0.06
13778 H 21.848220666199254 1.8513688626155727 41.41617105667163 H 0.0 **** 0.06
13779 H 22.4266963650731 0.5397629250895193 42.47119722284992 H 0.0 **** 0.06
13780 H 23.53536025152613 1.2953533508429018 41.302679819743844 H 0.0 **** 0.06
13781 C 131.526333006414 194.52493951406967 101.25104838147706 C 0.0 **** -0.24
13782 H 131.0899871905863 194.44718702530838 102.24635363095831 H 0.0 **** 0.06
13783 H 131.85530040940762 195.54962539581766 101.07732164234551 H 0.0 **** 0.06
13784 H 130.77950390744837 194.25127433410813 100.50450408337718 H 0.0 **** 0.06
13785 H 132.38010458657166 193.8510381056073 101.17482712652588 H 0.0 **** 0.06
13786 C 89.82416141714964 126.13301088627466 6.426527071384527 C 0.0 **** -0.24
13787 H 90.23512405904063 126.83648482898667 7.151143395423361 H 0.0 **** 0.06
13788 H 89.61748132626929 126.65520939838962 5.49168229115179 H 0.0 **** 0.06
13789 H 88.90049656832923 125.70709225887427 6.818000245441567 H 0.0 **** 0.06
13790 H 90.54464541359914 125.33495426161764 6.2466628942003695 H 0.0 **** 0.06
13791 C 92.85078648763078 125.32577712985108 46.65217610607195 C 0.0 **** -0.24
13792 H 93.42818374806245 126.22081091284537 46.42147585793178 H 0.0 **** 0.06
13793 H 93.4220112772748 124.44144784065088 46.369183814342904 H 0.0 **** 0.06
13794 H 91.91245853712405 125.34578273376906 46.09806861563493 H 0.0 **** 0.06
13795 H 92.63990069464569 125.29630590617975 47.72174112875662 H 0.0 **** 0.06
13796 C 2.1452434908594 34.23797194369932 99.84998138653592 C 0.0 **** -0.24
13797 H 2.9380854776833587 34.931111201522626 99.56775763089362 H 0.0 **** 0.06
13798 H 1.568737678772031 34.66161215686638 100.67280440353233 H 0.0 **** 0.06
13799 H 2.5850901181413164 33.291601297408235 100.16363599402007 H 0.0 **** 0.06
13800 H 1.4889187988294168 34.06976700028258 98.99537697155188 H 0.0 **** 0.06
13801 C 16.030499630509865 79.89421380018672 134.28230076488 C 0.0 **** -0.24
13802 H 15.094377296295363 80.23350599869195 134.72559802249327 H 0.0 **** 0.06
13803 H 15.868949003114778 78.94114458659371 133.77886939271605 H 0.0 **** 0.06
13804 H 16.778614172402456 79.7694850859084 135.06532762778482 H 0.0 **** 0.06
13805 H 16.379136928663343 80.63281964267651 133.55978422663293 H 0.0 **** 0.06
13806 C 0.04880940214852103 76.04239959632122 75.47064792335989 C 0.0 **** -0.24
13807 H 0.5034621929386844 75.55229821813656 74.6095682714233 H 0.0 **** 0.06
13808 H -0.5985264021235821 76.8508404371541 75.12817385899169 H 0.0 **** 0.06
13809 H 0.8305925107004555 76.4486499218042 76.11090293847192 H 0.0 **** 0.06
13810 H -0.5414812700654181 75.31783369093304 76.03119305410132 H 0.0 **** 0.06
13811 C 175.9856488013828 179.56024036901417 129.31868318125763 C 0.0 **** -0.24
13812 H 175.11816218078846 179.12485299520526 129.81475120260663 H 0.0 **** 0.06
13813 H 176.53488369029841 178.77844942267083 128.79479424422445 H 0.0 **** 0.06
13814 H 176.63383166649774 180.0246721366427 130.06231535147614 H 0.0 **** 0.06
13815 H 175.6545957163268 180.31372439094736 128.60396619738572 H 0.0 **** 0.06
13816 C 78.42809518921348 88.77053904024265 18.236954260267396 C 0.0 **** -0.24
13817 H 77.72254506465426 88.0577505668304 17.80680968392079 H 0.0 **** 0.06
13818 H 79.40072750295514 88.29235742528166 18.351934272279664 H 0.0 **** 0.06
13819 H 78.06432257742196 89.09647979438282 19.212004422939174 H 0.0 **** 0.06
13820 H 78.52141862757401 89.63144535366638 17.576253343979943 H 0.0 **** 0.06
13821 C 47.595707708140026 140.31833409451704 99.56392281267063 C 0.0 **** -0.24
13822 H 46.59916582182257 140.50045039668402 99.9668838718967 H 0.0 **** 0.06
13823 H 47.54069483457431 140.24676630132282 98.47789596850174 H 0.0 **** 0.06
13824 H 47.9870381402053 139.38641789148076 99.9716241247337 H 0.0 **** 0.06
13825 H 48.254732888417266 141.14168558719243 99.84143828634308 H 0.0 **** 0.06
13826 C 77.69521044307177 78.10646470410391 8.211788977428732 C 0.0 **** -0.24
13827 H 78.14812136373398 78.92097854834597 7.647126633422069 H 0.0 **** 0.06
13828 H 77.86418042742334 78.26629724721107 9.27782201501757 H 0.0 **** 0.06
13829 H 78.14471735596503 77.16009659413177 7.9101507338885 H 0.0 **** 0.06
13830 H 76.62357262573873 78.07918531697074 8.014165830778339 H 0.0 **** 0.06
13831 C 146.0088469806866 122.32216845424475 154.72305271536268 C 0.0 **** -0.24
13832 H 146.6702104541599 122.42118633666911 153.86279956736007 H 0.0 **** 0.06
13833 H 145.9083961646037 121.26861847977179 154.98511717473227 H 0.0 **** 0.06
13834 H 145.0285265225605 122.72938726782755 154.47557479807455 H 0.0 **** 0.06
13835 H 146.42683676870487 122.86881146610102 155.56798444207232 H 0.0 **** 0.06
13836 C 70.29812838035934 88.7669496777655 0.5055974488155783 C 0.0 **** -0.24
13837 H 69.22871278760749 88.9501899046499 0.40365147717218264 H 0.0 **** 0.06
13838 H 70.4683442243811 88.04135877909812 1.3018883049195011 H 0.0 **** 0.06
13839 H 70.80527233481695 89.70069276857237 0.7490323212602519 H 0.0 **** 0.06
13840 H 70.69016958474839 88.37498685398202 -0.43347632075543885 H 0.0 **** 0.06
13841 C 140.3062697802883 27.60597180878375 148.49552491809553 C 0.0 **** -0.24
13842 H 140.1243153465735 26.731736835832393 147.87097590922662 H 0.0 **** 0.06
13843 H 139.35333977999608 28.035541604130174 148.80612258207364 H 0.0 **** 0.06
13844 H 140.8712971177165 28.34631439881818 147.92889836847777 H 0.0 **** 0.06
13845 H 140.8760597549135 27.3112079029935 149.37650408792092 H 0.0 **** 0.06
13846 C 64.20932026205851 31.940875297764208 146.1785424344789 C 0.0 **** -0.24
13847 H 63.526197646350184 32.50479164021324 145.54375623239355 H 0.0 **** 0.06
13848 H 63.8971310873974 30.897149195900496 146.2099338276812 H 0.0 **** 0.06
13849 H 64.1930539160377 32.35558387958085 147.1867943355427 H 0.0 **** 0.06
13850 H 65.21874565585004 32.00714407646926 145.77373570755515 H 0.0 **** 0.06
13851 C 37.01045426357729 85.33312435688853 31.537693406714254 C 0.0 **** -0.24
13852 H 36.026841324811016 85.65479355352161 31.194792245194435 H 0.0 **** 0.06
13853 H 37.77863966419511 85.92908488184946 31.045777858000747 H 0.0 **** 0.06
13854 H 37.15396828640371 84.2810804167114 31.293845239701056 H 0.0 **** 0.06
13855 H 37.08041199929761 85.46942317246902 32.61763241694371 H 0.0 **** 0.06
13856 C 88.36754901677273 7.389277833825879 22.589619076118197 C 0.0 **** -0.24
13857 H 88.77438059084469 8.394413721645499 22.48378630191948 H 0.0 **** 0.06
13858 H 89.16873080647468 6.659258203674767 22.475029554238176 H 0.0 **** 0.06
13859 H 87.61016237404888 7.221891293698761 21.823481416732776 H 0.0 **** 0.06
13860 H 87.91582514979967 7.282388825462931 23.576478234079943 H 0.0 **** 0.06
13861 C 99.55067741083906 111.83522347897159 171.67490129591255 C 0.0 **** -0.24
13862 H 98.94500206742708 112.62063466338793 171.22231722449877 H 0.0 **** 0.06
13863 H 99.37275317694264 111.81396777909382 172.75094538661446 H 0.0 **** 0.06
13864 H 100.60546159237106 112.03516296785085 171.48497966836402 H 0.0 **** 0.06
13865 H 99.28005052139622 110.87236939824493 171.24174914604745 H 0.0 **** 0.06
13866 C 121.53422975441003 40.84118742598778 50.382107417758164 C 0.0 **** -0.24
13867 H 122.15699760425241 41.735940860167375 50.38253928631133 H 0.0 **** 0.06
13868 H 121.24325882134531 40.600380713932566 51.40420071541291 H 0.0 **** 0.06
13869 H 122.09488567471908 40.00812833989389 49.95704130534688 H 0.0 **** 0.06
13870 H 120.64153132940777 41.02149874857511 49.782776922567166 H 0.0 **** 0.06
13871 C 61.29383536753534 138.78347612638663 106.22994000329291 C 0.0 **** -0.24
13872 H 61.73334881699952 137.78747828818604 106.28208319135757 H 0.0 **** 0.06
13873 H 62.06215730163041 139.50412089126883 105.94818260600181 H 0.0 **** 0.06
13874 H 60.88384634261598 139.05100843059915 107.20411768760806 H 0.0 **** 0.06
13875 H 60.49800280950143 138.7903251605702 105.48539765741717 H 0.0 **** 0.06
13876 C 116.47937891987243 58.8979421529005 94.10074413375528 C 0.0 **** -0.24
13877 H 115.74023046086148 59.69428058154733 94.01333506294554 H 0.0 **** 0.06
13878 H 116.81090378175642 58.59889723907085 93.1057732227375 H 0.0 **** 0.06
13879 H 116.03152081555339 58.042343691409656 94.60734170441316 H 0.0 **** 0.06
13880 H 117.33282710549767 59.25534952874881 94.67677003641134 H 0.0 **** 0.06
13881 C 71.13106420914356 64.55344924622398 21.724974087136957 C 0.0 **** -0.24
13882 H 71.7860649729494 65.41970243486304 21.812741243684286 H 0.0 **** 0.06
13883 H 70.38129611239472 64.58407150465183 22.51616419177543 H 0.0 **** 0.06
13884 H 71.72098954413188 63.641504138193795 21.81834917644528 H 0.0 **** 0.06
13885 H 70.63647956977141 64.56918527101607 20.7537495532913 H 0.0 **** 0.06
13886 C 61.202407582725456 113.6345257567177 77.90616125691369 C 0.0 **** -0.24
13887 H 61.41257883201581 113.5410623696419 76.84074100087768 H 0.0 **** 0.06
13888 H 60.57886533255963 112.80032483060532 78.22848961441115 H 0.0 **** 0.06
13889 H 60.67897370860146 114.57246480012896 78.09232521255718 H 0.0 **** 0.06
13890 H 62.139135648346155 113.62524797448731 78.46310391836013 H 0.0 **** 0.06
13891 C 146.82506731043446 5.737209751496771 92.16325936050657 C 0.0 **** -0.24
13892 H 146.4576331410709 6.056196913841767 93.13856136553929 H 0.0 **** 0.06
13893 H 147.57113479978923 6.4460456425612875 91.80629769830924 H 0.0 **** 0.06
13894 H 145.99474663526084 5.6963221322243385 91.45854420300833 H 0.0 **** 0.06
13895 H 147.27554762827086 4.747902737916377 92.25101940668065 H 0.0 **** 0.06
13896 C 31.578311343164387 81.43513836529141 148.61327687875996 C 0.0 **** -0.24
13897 H 31.21460433190734 80.44952325807344 148.90355217924628 H 0.0 **** 0.06
13898 H 32.38541710491677 81.7349362369423 149.28104569251775 H 0.0 **** 0.06
13899 H 30.76273966386833 82.15678976460521 148.68058829895722 H 0.0 **** 0.06
13900 H 31.94706229209953 81.39902192441986 147.58838029183835 H 0.0 **** 0.06
13901 C 176.5455539133644 153.90315690096554 122.73113171418217 C 0.0 **** -0.24
13902 H 177.4620572614032 153.34862544784235 122.93159156919677 H 0.0 **** 0.06
13903 H 175.6994983383415 153.37799557285305 123.1744760803168 H 0.0 **** 0.06
13904 H 176.39922132935013 153.98395360489192 121.65385906646975 H 0.0 **** 0.06
13905 H 176.62243410369183 154.90073879764364 123.16346778226554 H 0.0 **** 0.06
13906 C 1.6107087466479655 168.62044799273528 12.089860301136213 C 0.0 **** -0.24
13907 H 0.6795986729126113 168.38611335486823 11.572937665027695 H 0.0 **** 0.06
13908 H 1.7274917236179874 167.95718972472034 12.946569047157652 H 0.0 **** 0.06
13909 H 1.5844480548440316 169.6558666030056 12.431885732647402 H 0.0 **** 0.06
13910 H 2.4496586091399664 168.48554963825217 11.406391013249845 H 0.0 **** 0.06
13911 C 133.83222915914723 196.30366373419392 198.58502623067864 C 0.0 **** -0.24
13912 H 133.11915189701608 196.88507122247222 199.16983888629142 H 0.0 **** 0.06
13913 H 133.62930564668034 196.44011829622863 197.5234496420453 H 0.0 **** 0.06
13914 H 133.73616057210063 195.2480712960574 198.841514318429 H 0.0 **** 0.06
13915 H 134.84450817108632 196.64029708759537 198.80808645321886 H 0.0 **** 0.06
13916 C 175.81785285907233 15.242481188820022 132.40814870361626 C 0.0 **** -0.24
13917 H 176.50171308371006 15.492278073835024 131.59770724041172 H 0.0 **** 0.06
13918 H 175.43659100829532 14.231021865267707 132.2634415950703 H 0.0 **** 0.06
13919 H 174.98678574467027 15.946904856309985 132.4130888043467 H 0.0 **** 0.06
13920 H 176.3464927687587 15.298060263430116 133.35984587102743 H 0.0 **** 0.06
13921 C 121.37945367053942 137.65084300531908 48.541431492673794 C 0.0 **** -0.24
13922 H 121.37445786648607 137.95030772137443 47.493266136648245 H 0.0 **** 0.06
13923 H 122.05724725656387 138.29736402882315 49.10014262964813 H 0.0 **** 0.06
13924 H 121.71373178981389 136.61671851052944 48.62239655996706 H 0.0 **** 0.06
13925 H 120.37235452031098 137.74058092748203 48.94835787999355 H 0.0 **** 0.06
13926 C 51.43251632890079 69.73883931970961 40.65910929980947 C 0.0 **** -0.24
13927 H 50.368361273873035 69.93121429298758 40.51990590119294 H 0.0 **** 0.06
13928 H 51.62707050367986 69.51923369491729 41.70915631656081 H 0.0 **** 0.06
13929 H 52.00218758349655 70.6175129287408 40.35919431338755 H 0.0 **** 0.06
13930 H 51.72985995962725 68.88587556613514 40.04818270336756 H 0.0 **** 0.06
13931 C 135.355182833724 115.30597448766261 70.6684720819257 C 0.0 **** -0.24
13932 H 134.4191179509693 114.7625421768582 70.7982586266888 H 0.0 **** 0.06
13933 H 135.59774839551343 115.3646528961817 69.60713919915423 H 0.0 **** 0.06
13934 H 136.15383699229017 114.78489204357899 71.1961578765733 H 0.0 **** 0.06
13935 H 135.2498958238194 116.31259398592712 71.07294026433001 H 0.0 **** 0.06
13936 C 170.2630273763239 32.76524836579182 158.87531250578783 C 0.0 **** -0.24
13937 H 169.69404220581097 32.9937907497341 157.97398074516747 H 0.0 **** 0.06
13938 H 171.1172397666172 33.43804661201398 158.94540798392757 H 0.0 **** 0.06
13939 H 170.61367869673694 31.734254305724363 158.83079759509602 H 0.0 **** 0.06
13940 H 169.6253757532013 32.894495082711444 159.74889784245323 H 0.0 **** 0.06
13941 C 75.71422195213982 182.4984648536138 182.80244976471877 C 0.0 **** -0.24
13942 H 75.09626835548093 182.1759714798249 181.96443600630138 H 0.0 **** 0.06
13943 H 76.39858385062855 183.28015529641084 182.4692042448895 H 0.0 **** 0.06
13944 H 76.28605892148047 181.65111615212496 183.17870274830466 H 0.0 **** 0.06
13945 H 75.07628825219179 182.8876937527867 183.59527831982956 H 0.0 **** 0.06
13946 C 18.446629340722225 71.26505979197077 129.56750389806848 C 0.0 **** -0.24
13947 H 18.087624538125482 70.23884136671964 129.63733191109304 H 0.0 **** 0.06
13948 H 19.48089012800692 71.31184218843381 129.90739608487524 H 0.0 **** 0.06
13949 H 17.82809301919309 71.90889967493365 130.1929019388088 H 0.0 **** 0.06
13950 H 18.388985675575597 71.60043466923295 128.5320737566052 H 0.0 **** 0.06
13951 C 136.56652667598777 109.51978795401149 69.56010460040488 C 0.0 **** -0.24
13952 H 137.4105149974792 109.32265108652277 70.2216062748522 H 0.0 **** 0.06
13953 H 135.69739553679582 109.80507465511761 70.15434721272106 H 0.0 **** 0.06
13954 H 136.33718055090205 108.62185945694475 68.98707368260614 H 0.0 **** 0.06
13955 H 136.82195601088299 110.33101074087793 68.87756511383918 H 0.0 **** 0.06
13956 C 95.23080269967966 126.75634877845269 72.40515175858636 C 0.0 **** -0.24
13957 H 94.93133362397566 126.2292892383343 73.31089189267831 H 0.0 **** 0.06
13958 H 95.11381719810555 127.82963016570707 72.55365471890275 H 0.0 **** 0.06
13959 H 94.60436572246817 126.43310939888894 71.57379581887305 H 0.0 **** 0.06
13960 H 96.2736013701032 126.5304978349408 72.18313833891035 H 0.0 **** 0.06
13961 C 127.34777345967322 94.09518787224297 64.73039990540497 C 0.0 **** -0.24
13962 H 126.38729975767703 94.46595292703972 64.37326378048584 H 0.0 **** 0.06
13963 H 127.99497701145322 93.88684918889143 63.878071769227915 H 0.0 **** 0.06
13964 H 127.19456190206179 93.18017083965847 65.30240840811268 H 0.0 **** 0.06
13965 H 127.81374729776823 94.84857823096934 65.36559675215182 H 0.0 **** 0.06
13966 C 9.045365465681357 160.58293299695904 24.550231376302918 C 0.0 **** -0.24
13967 H 8.155352049672786 160.32846667381153 23.97483786847154 H 0.0 **** 0.06
13968 H 8.754915256866155 160.86994717582323 25.56051510117338 H 0.0 **** 0.06
13969 H 9.562475253588303 161.4130603219893 24.07026497389525 H 0.0 **** 0.06
13970 H 9.707987023363359 159.71821212649434 24.594176610566777 H 0.0 **** 0.06
13971 C 53.95913536930291 182.75184681109607 24.79304726544987 C 0.0 **** -0.24
13972 H 53.53008129753468 183.40115503448072 25.555791720141116 H 0.0 **** 0.06
13973 H 53.802715066459285 183.19415375805357 23.80890655020748 H 0.0 **** 0.06
13974 H 53.47799379496735 181.7746127352494 24.83460482949475 H 0.0 **** 0.06
13975 H 55.02858985977444 182.63756439780292 24.973851952943093 H 0.0 **** 0.06
13976 C 182.87538830953147 112.6461902062882 108.29370456852328 C 0.0 **** -0.24
13977 H 183.40642835514845 112.80819037292312 107.3556474805049 H 0.0 **** 0.06
13978 H 181.9518036130844 113.22502774333933 108.29339529820066 H 0.0 **** 0.06
13979 H 183.50366257767223 112.96330052766422 109.12611262489727 H 0.0 **** 0.06
13980 H 182.63956701487967 111.58652665992645 108.39863882537301 H 0.0 **** 0.06
13981 C 106.45418319647877 60.29992061284577 197.18397827446756 C 0.0 **** -0.24
13982 H 107.37906864746643 60.77406805598531 197.51518489651673 H 0.0 **** 0.06
13983 H 106.69175543043929 59.41821513321173 196.58954195015747 H 0.0 **** 0.06
13984 H 105.88233448930708 61.00355503958701 196.57951130368312 H 0.0 **** 0.06
13985 H 105.86637616977339 60.00591860998708 198.0530337299797 H 0.0 **** 0.06
13986 C 19.653073578262834 74.35058503951409 157.08894432058295 C 0.0 **** -0.24
13987 H 19.55678626019403 73.35285461752612 157.51667955521276 H 0.0 **** 0.06
13988 H 19.26909509167811 75.08731043002169 157.7951814776456 H 0.0 **** 0.06
13989 H 19.082980305366505 74.4048785820931 156.16154119776064 H 0.0 **** 0.06
13990 H 20.703169688302566 74.55838422181495 156.88323981433396 H 0.0 **** 0.06
13991 C 101.18576070414818 121.82336359939981 67.39337693296204 C 0.0 **** -0.24
13992 H 101.34150943040612 122.41333725103556 68.29682262389076 H 0.0 **** 0.06
13993 H 101.35895138444559 122.44976151719672 66.5175611145865 H 0.0 **** 0.06
13994 H 100.16296323859675 121.44795011567189 67.37580630523343 H 0.0 **** 0.06
13995 H 101.88146578161675 120.98454444917914 67.38320085196341 H 0.0 **** 0.06
13996 C 184.61608067935015 157.0149428247578 109.43059798903641 C 0.0 **** -0.24
13997 H 183.9065447761155 156.18748385912386 109.4295278662891 H 0.0 **** 0.06
13998 H 184.1483112231748 157.89449658369006 108.98684284242387 H 0.0 **** 0.06
13999 H 185.4959310499171 156.73896291833844 108.85044536036742 H 0.0 **** 0.06
14000 H 184.91190803877356 157.23827934979118 110.45535241797845 H 0.0 **** 0.06
14001 C 192.09820530298745 127.30396924753552 28.187593138483024 C 0.0 **** -0.24
14002 H 192.35457325880878 127.37905542994366 27.130411395315008 H 0.0 **** 0.06
14003 H 191.33197913413142 126.53918034986458 28.321858265015806 H 0.0 **** 0.06
14004 H 191.71916859545442 128.26374853897914 28.537796729425366 H 0.0 **** 0.06
14005 H 192.98584443934334 127.03345213235008 28.758249696063118 H 0.0 **** 0.06
14006 C 102.73353959943697 1.1669893506810638 10.908992002345911 C 0.0 **** -0.24
14007 H 102.75954365987656 0.6098980963366216 9.971603694034428 H 0.0 **** 0.06
14008 H 102.0282044478989 1.9934971815214908 10.8203645810853 H 0.0 **** 0.06
14009 H 103.72711972301576 1.5580001126714365 11.126182670247601 H 0.0 **** 0.06
14010 H 102.41870283102156 0.5056912780175935 11.71560425626069 H 0.0 **** 0.06
14011 C 184.69350287525032 100.39106838012623 30.548054643783075 C 0.0 **** -0.24
14012 H 183.65073456715143 100.39152099725075 30.230475148693472 H 0.0 **** 0.06
14013 H 185.09838330710187 101.39962541061098 30.46391050245893 H 0.0 **** 0.06
14014 H 185.26536993983154 99.71553277099923 29.912837076960784 H 0.0 **** 0.06
14015 H 184.75685439249668 100.05845895324032 31.583537241432964 H 0.0 **** 0.06
14016 C 155.4275366543117 8.352387248002799 6.393933960716026 C 0.0 **** -0.24
14017 H 154.9062071348622 7.398006627974951 6.461460450404729 H 0.0 **** 0.06
14018 H 155.25495577820027 8.792368437879475 5.411378063669247 H 0.0 **** 0.06
14019 H 156.4961785547741 8.193901082168622 6.5392381548771255 H 0.0 **** 0.06
14020 H 155.05212430822868 9.026298587998497 7.164355124876749 H 0.0 **** 0.06
14021 C 149.71433379424576 165.32148370041494 167.9170269811931 C 0.0 **** -0.24
14022 H 149.38718182959926 165.97231747863088 167.1054983673746 H 0.0 **** 0.06
14023 H 150.74688007268304 165.5560116733582 168.17561641142817 H 0.0 **** 0.06
14024 H 149.64540535519973 164.28143146722556 167.59800988500297 H 0.0 **** 0.06
14025 H 149.07623865900808 165.47702092071813 168.78683181552765 H 0.0 **** 0.06
14026 C 130.02926988634658 14.78908355265986 25.538862875989693 C 0.0 **** -0.24
14027 H 128.99079343827813 14.671272099568256 25.847924042773812 H 0.0 **** 0.06
14028 H 130.10374302064153 14.653704883329851 24.45954222589468 H 0.0 **** 0.06
14029 H 130.64442215586652 14.042915393420827 26.04186829122274 H 0.0 **** 0.06
14030 H 130.3774471967053 15.787177003690147 25.80514413834895 H 0.0 **** 0.06
14031 C 125.39794925806231 1.6664903659283965 17.792192320233085 C 0.0 **** -0.24
14032 H 126.43761212663131 1.8098229872308167 17.494846394296047 H 0.0 **** 0.06
14033 H 124.92261904295009 0.9573422563943694 17.1148845494979 H 0.0 **** 0.06
14034 H 124.87351067456399 2.6206620046129245 17.748772020144827 H 0.0 **** 0.06
14035 H 125.36201753135481 1.2780279674968895 18.809728829136617 H 0.0 **** 0.06
14036 C 13.763502268421064 149.51134024050876 187.45262737595564 C 0.0 **** -0.24
14037 H 14.540154929979792 148.932745156538 187.95133272327482 H 0.0 **** 0.06
14038 H 13.015934400828513 149.82266588782113 188.18381364291577 H 0.0 **** 0.06
14039 H 13.289458722651602 148.89905813762073 186.68566386974655 H 0.0 **** 0.06
14040 H 14.208608557611 150.39329885862247 186.99012861062812 H 0.0 **** 0.06
14041 C 145.38894189054432 165.34152250191042 132.7270638980997 C 0.0 **** -0.24
14042 H 146.46673997215797 165.1976039877232 132.65576575881659 H 0.0 **** 0.06
14043 H 144.93343903729055 164.46095710644994 133.1814254762644 H 0.0 **** 0.06
14044 H 144.9756687818516 165.49112806926524 131.72973888167937 H 0.0 **** 0.06
14045 H 145.17957891809354 166.21745947552074 133.34219906727492 H 0.0 **** 0.06
14046 C 76.0880020612156 171.30865752974063 97.0305340559608 C 0.0 **** -0.24
14047 H 75.17448816551382 171.03880887698944 96.50101187414589 H 0.0 **** 0.06
14048 H 75.86691014012428 171.44824504390982 98.08861173088124 H 0.0 **** 0.06
14049 H 76.48721241346476 172.2350886069272 96.61668957588259 H 0.0 **** 0.06
14050 H 76.82324017618191 170.5119114943691 96.91454109252135 H 0.0 **** 0.06
14051 C 16.674823408346185 147.10817873234865 26.37704747544315 C 0.0 **** -0.24
14052 H 15.696793826670415 147.5138699950428 26.117601091057267 H 0.0 **** 0.06
14053 H 16.694923624408148 146.8606598777434 27.438545043839127 H 0.0 **** 0.06
14054 H 17.44457221903224 147.84889941094602 26.16091945197151 H 0.0 **** 0.06
14055 H 16.861325578531307 146.20760674785657 25.7905206125658 H 0.0 **** 0.06
14056 C 142.05888651747958 149.57507970283467 160.80021989823445 C 0.0 **** -0.24
14057 H 141.87579867684153 150.63142302608688 160.993911101827 H 0.0 **** 0.06
14058 H 141.21500361572305 149.1542986264042 160.2540362263709 H 0.0 **** 0.06
14059 H 142.1785420225584 149.0477606221147 161.74683958825483 H 0.0 **** 0.06
14060 H 142.96695034311895 149.4671445155683 160.2066798614433 H 0.0 **** 0.06
14061 C 71.56848378975874 7.187894360455914 8.706499967596834 C 0.0 **** -0.24
14062 H 72.19603563195385 6.848164732285312 9.53041328024183 H 0.0 **** 0.06
14063 H 72.15690358356085 7.816251322024641 8.037904157562558 H 0.0 **** 0.06
14064 H 70.73010841124892 7.762832840591216 9.100895923438777 H 0.0 **** 0.06
14065 H 71.1913985615559 6.325352805627574 8.157617042953603 H 0.0 **** 0.06
14066 C 45.533581120097864 62.29929438379844 142.3127915440565 C 0.0 **** -0.24
14067 H 45.39371435734378 63.20524821184085 142.90427753474447 H 0.0 **** 0.06
14068 H 45.91124963216582 62.5654295364873 141.32609795709087 H 0.0 **** 0.06
14069 H 44.58011049545141 61.781502323475195 142.21124441167012 H 0.0 **** 0.06
14070 H 46.249205494546985 61.646994787043866 142.81315308369145 H 0.0 **** 0.06
14071 C 128.84546103868993 9.912314183046846 183.3375821078543 C 0.0 **** -0.24
14072 H 128.81811277240914 10.792090742758774 183.98076246114263 H 0.0 **** 0.06
14073 H 128.0633847226962 9.99049874328201 182.58139461477546 H 0.0 **** 0.06
14074 H 128.68353496300475 9.017462198392579 183.9382671729536 H 0.0 **** 0.06
14075 H 129.81862266303605 9.850760139457925 182.84935443693143 H 0.0 **** 0.06
14076 C 33.7515401134516 77.68060088488203 132.3591350622229 C 0.0 **** -0.24
14077 H 32.92558011882997 77.01755033813201 132.10308091344996 H 0.0 **** 0.06
14078 H 34.69033380061738 77.23438701827953 132.02902855091327 H 0.0 **** 0.06
14079 H 33.77955640956634 77.82711839652264 133.43867124897588 H 0.0 **** 0.06
14080 H 33.61232312027394 78.64208006794809 131.8649072895338 H 0.0 **** 0.06
14081 C 149.86117686369752 165.81354616708984 161.4873552495573 C 0.0 **** -0.24
14082 H 150.1489410580379 165.9312981079267 162.5314902528264 H 0.0 **** 0.06
14083 H 148.91973470698161 165.26582225199877 161.4303035847967 H 0.0 **** 0.06
14084 H 150.635177012408 165.26072500561378 160.95621479039866 H 0.0 **** 0.06
14085 H 149.73844120717456 166.7960587929727 161.03172318458564 H 0.0 **** 0.06
14086 C 142.19849543919966 59.392810309696415 138.34062155500004 C 0.0 **** -0.24
14087 H 141.17560150317186 59.47105635194731 137.97071175513312 H 0.0 **** 0.06
14088 H 142.19217947783937 58.93807678069743 139.33163075086298 H 0.0 **** 0.06
14089 H 142.63952776072264 60.387240972982056 138.39863707685004 H 0.0 **** 0.06
14090 H 142.78334669691364 58.77425622167249 137.66025656686412 H 0.0 **** 0.06
14091 C 105.51364613227753 26.98204758171633 99.78726822714322 C 0.0 **** -0.24
14092 H 106.40542188074119 26.465573527088395 99.43322552979475 H 0.0 **** 0.06
14093 H 105.78956501061032 27.967302778836483 100.16132921534609 H 0.0 **** 0.06
14094 H 105.0537391578423 26.40380300016352 100.58928162030998 H 0.0 **** 0.06
14095 H 104.80563061397754 27.090121792467073 98.96510176534258 H 0.0 **** 0.06
14096 C 190.71946958308382 134.11581961401998 32.013655300918856 C 0.0 **** -0.24
14097 H 190.9683804160175 134.64857113271847 31.095525183357097 H 0.0 **** 0.06
14098 H 191.6018119319286 134.05725849398414 32.65047964407019 H 0.0 **** 0.06
14099 H 190.38055138341008 133.10893136312626 31.768018971234014 H 0.0 **** 0.06
14100 H 189.92608518960532 134.64873003310208 32.53779495150819 H 0.0 **** 0.06
14101 C 180.43710343465494 180.9242771990518 146.51917811112057 C 0.0 **** -0.24
14102 H 181.1495788076867 180.27881524778968 146.0055708748288 H 0.0 **** 0.06
14103 H 180.9114133354745 181.87832544862079 146.75050634228728 H 0.0 **** 0.06
14104 H 180.11303227003282 180.44452294407097 147.44268523958834 H 0.0 **** 0.06
14105 H 179.57324389172365 181.09454332436 145.8759815336833 H 0.0 **** 0.06
14106 C 25.280282138145537 171.2521866951522 2.38827609154788 C 0.0 **** -0.24
14107 H 25.453426395398537 170.63564646734764 3.269888750017458 H 0.0 **** 0.06
14108 H 24.620618322004646 170.72324530736626 1.6989493304059238 H 0.0 **** 0.06
14109 H 26.23090119963473 171.4576414225988 1.8956723493311642 H 0.0 **** 0.06
14110 H 24.8157058718524 172.19207209194113 2.6869347976759173 H 0.0 **** 0.06
14111 C 42.885226975938195 154.5654884189446 178.49075613208538 C 0.0 **** -0.24
14112 H 43.56676921164454 153.71835292874314 178.4088211534442 H 0.0 **** 0.06
14113 H 42.573920180895556 154.6806503581497 179.52883584124424 H 0.0 **** 0.06
14114 H 42.00968634439825 154.3883351417245 177.86622991265872 H 0.0 **** 0.06
14115 H 43.39020670902761 155.47147909758232 178.15938023018077 H 0.0 **** 0.06
14116 C 36.70153785561715 171.34652349891255 59.08608437552209 C 0.0 **** -0.24
14117 H 37.04975497089936 170.9892102624288 58.117376598562686 H 0.0 **** 0.06
14118 H 36.026005338993016 170.610673785994 59.522699433519506 H 0.0 **** 0.06
14119 H 36.17557590059805 172.2918604492904 58.95652847091577 H 0.0 **** 0.06
14120 H 37.55574491675962 171.49329830185542 59.7475578447272 H 0.0 **** 0.06
14121 C 38.74937190114905 156.56420233264714 60.48312045081434 C 0.0 **** -0.24
14122 H 39.231894481890265 155.7072420562153 60.013639124625456 H 0.0 **** 0.06
14123 H 37.73169835356104 156.29602884268826 60.770275903368315 H 0.0 **** 0.06
14124 H 38.720286370806335 157.3959458494453 59.779005088512406 H 0.0 **** 0.06
14125 H 39.31142614363843 156.85753218671397 61.369077718892925 H 0.0 **** 0.06
14126 C 80.55391477355849 169.0710883702477 174.03139566140263 C 0.0 **** -0.24
14127 H 80.75006022582463 168.73080035839172 175.04846632061742 H 0.0 **** 0.06
14128 H 80.06012194419824 168.27553834052418 173.47197586522356 H 0.0 **** 0.06
14129 H 81.4958202146633 169.3261534375218 173.54606317011897 H 0.0 **** 0.06
14130 H 79.91055043098109 169.94926506720708 174.06028592544874 H 0.0 **** 0.06
14131 C 1.0089326478464429 166.12779061182835 76.94908075013389 C 0.0 **** -0.24
14132 H 1.8462515296531663 166.50974656935688 77.53279849934508 H 0.0 **** 0.06
14133 H 0.1699399246679647 165.91913223120957 77.61295165210782 H 0.0 **** 0.06
14134 H 1.3087102597609004 165.21096976573432 76.44286382903039 H 0.0 **** 0.06
14135 H 0.7124540149536358 166.87131600498685 76.21042179340728 H 0.0 **** 0.06
14136 C 21.25253811095098 62.490255320931965 154.96739088385192 C 0.0 **** -0.24
14137 H 21.56323493189501 63.53513406259822 154.96056531611623 H 0.0 **** 0.06
14138 H 21.228650941903652 62.12494593911424 155.99498135737932 H 0.0 **** 0.06
14139 H 21.958679994502518 61.8971772541565 154.3863317411691 H 0.0 **** 0.06
14140 H 20.258227398076144 62.40394743865562 154.5280301431136 H 0.0 **** 0.06
14141 C 3.8623684450145674 21.422300207760898 99.20436199672446 C 0.0 **** -0.24
14142 H 4.917243527793062 21.1707587824135 99.09406623293725 H 0.0 **** 0.06
14143 H 3.2855347140359754 20.916537194726857 98.42980256591213 H 0.0 **** 0.06
14144 H 3.734726617711317 22.500269753550896 99.10674591745425 H 0.0 **** 0.06
14145 H 3.5132597308659115 21.1024524993973 100.18601734639626 H 0.0 **** 0.06
14146 C 177.63226604339138 79.40582299391525 33.409326992943605 C 0.0 **** -0.24
14147 H 177.13173127523112 79.99961692462924 32.645054543238444 H 0.0 **** 0.06
14148 H 176.8969369418978 79.04318352927234 34.12756331409987 H 0.0 **** 0.06
14149 H 178.37005336792967 80.02264861291857 33.92349790327553 H 0.0 **** 0.06
14150 H 178.13209422573806 78.55762423927226 32.94025197869115 H 0.0 **** 0.06
14151 C 34.45584902669776 182.13382849473288 155.2781905475135 C 0.0 **** -0.24
14152 H 34.5437882324901 181.23986133559902 155.89686504243917 H 0.0 **** 0.06
14153 H 33.51001507447842 182.6318641010244 155.49411964977077 H 0.0 **** 0.06
14154 H 34.48695605018159 181.85182167828108 154.22623847198602 H 0.0 **** 0.06
14155 H 35.281756463751094 182.81027099310134 155.49869936570425 H 0.0 **** 0.06
14156 C 23.162462227911675 116.56627031289929 137.8255626858312 C 0.0 **** -0.24
14157 H 24.027413248258128 117.07932813639479 138.24503743804337 H 0.0 **** 0.06
14158 H 23.43490476045443 116.11777763245357 136.8695401487804 H 0.0 **** 0.06
14159 H 22.353254632516 117.2815133980385 137.67430758924712 H 0.0 **** 0.06
14160 H 22.834276270418144 115.78646208471025 138.51336556725414 H 0.0 **** 0.06
14161 C 72.24446921491727 9.608594474914753 11.078002556293391 C 0.0 **** -0.24
14162 H 71.44206842876675 9.6727085490555 10.342986877240605 H 0.0 **** 0.06
14163 H 72.74516994664211 10.573381615778658 11.152997300120553 H 0.0 **** 0.06
14164 H 72.96134555439902 8.848719282846929 10.767216963731897 H 0.0 **** 0.06
14165 H 71.82652706444036 9.339505070008272 12.047648840247852 H 0.0 **** 0.06
14166 C 42.829638179247354 52.02839507543338 196.88465050952664 C 0.0 **** -0.24
14167 H 43.77015424138867 51.49241970039435 197.01433330926423 H 0.0 **** 0.06
14168 H 42.60778844313444 52.117304812460944 195.82114901127582 H 0.0 **** 0.06
14169 H 42.91428513601153 53.02262501708337 197.32273770045376 H 0.0 **** 0.06
14170 H 42.028255002959895 51.48028524955812 197.37976493959445 H 0.0 **** 0.06
14171 C 20.301111486485226 134.12924675525815 86.03249885675888 C 0.0 **** -0.24
14172 H 21.354228494705936 134.27087074788733 85.78735212930329 H 0.0 **** 0.06
14173 H 19.770158454251757 135.07331928829117 85.90971605799197 H 0.0 **** 0.06
14174 H 20.211127109881474 133.79169836884273 87.06456453370674 H 0.0 **** 0.06
14175 H 19.870991826121923 133.38131385857133 85.3664364415641 H 0.0 **** 0.06
14176 C 172.02946107346773 166.607045383157 174.34410464106935 C 0.0 **** -0.24
14177 H 172.04067662432857 166.91579360706785 173.29852181757232 H 0.0 **** 0.06
14178 H 171.2829953974829 165.8247061618386 174.484304631838 H 0.0 **** 0.06
14179 H 171.78095185601606 167.46298333563252 174.97259020202034 H 0.0 **** 0.06
14180 H 173.0123691754569 166.22634911316737 174.62025981130157 H 0.0 **** 0.06
14181 C 158.53959070878017 155.78203665225757 149.16333211890733 C 0.0 **** -0.24
14182 H 157.7182746671682 156.154622371127 149.77614411444046 H 0.0 **** 0.06
14183 H 158.54658822840048 154.6919325639991 149.19038420848585 H 0.0 **** 0.06
14184 H 159.48323989556786 156.1613105266633 149.55366171303527 H 0.0 **** 0.06
14185 H 158.40859571391115 156.12067490351583 148.13598012916336 H 0.0 **** 0.06
14186 C 90.43234461639679 60.665509108073536 18.38260333457214 C 0.0 **** -0.24
14187 H 89.6863533713192 61.42139691257427 18.626663485311752 H 0.0 **** 0.06
14188 H 89.94663755158527 59.69394264761738 18.28721486144208 H 0.0 **** 0.06
14189 H 91.17938687413297 60.62296698601372 19.175512362023625 H 0.0 **** 0.06
14190 H 90.9170006685498 60.92372988608855 17.441022629510897 H 0.0 **** 0.06
14191 C 188.7703664359209 122.45148878625531 19.957317511568945 C 0.0 **** -0.24
14192 H 189.11966181670874 123.10636000173665 19.158799434808927 H 0.0 **** 0.06
14193 H 188.42865544531494 123.05549299539902 20.797971542998027 H 0.0 **** 0.06
14194 H 189.58681353800114 121.8063354388955 20.28106271971734 H 0.0 **** 0.06
14195 H 187.94677131079396 121.83958765888408 19.590733631402287 H 0.0 **** 0.06
14196 C 19.763347601316866 20.22739253697239 173.30444325361893 C 0.0 **** -0.24
14197 H 20.357045927039223 19.62979819318639 173.99566027090233 H 0.0 **** 0.06
14198 H 20.424556770890945 20.870074478974004 172.72169109759886 H 0.0 **** 0.06
14199 H 19.06047612026964 20.842686261165767 173.86629732772894 H 0.0 **** 0.06
14200 H 19.21316024333072 19.567988572217544 172.6333322638784 H 0.0 **** 0.06
14201 C 183.11564083436286 78.3635335357129 68.1775910319013 C 0.0 **** -0.24
14202 H 182.4020822023169 77.7198438767901 68.69253316087031 H 0.0 **** 0.06
14203 H 183.26739976747427 79.27472668890195 68.75745996318678 H 0.0 **** 0.06
14204 H 182.7284868618704 78.61914663916696 67.19186064326972 H 0.0 **** 0.06
14205 H 184.06519262487075 77.83938545237189 68.07011609296022 H 0.0 **** 0.06
14206 C 82.26357290957816 5.037136363856291 128.59073536925067 C 0.0 **** -0.24
14207 H 81.31163877691233 4.5338133899605 128.4272054532965 H 0.0 **** 0.06
14208 H 82.08330483943593 6.08141343812548 128.84749111967008 H 0.0 **** 0.06
14209 H 82.86437292273234 4.984332145194401 127.68304283796803 H 0.0 **** 0.06
14210 H 82.79621114971894 4.549263743389105 129.40729859536577 H 0.0 **** 0.06
14211 C 145.61044276547582 83.42656867539364 132.39692097551605 C 0.0 **** -0.24
14212 H 146.22623715435378 84.14490597995729 131.8548070655543 H 0.0 **** 0.06
14213 H 145.16396006261905 82.726440561635 131.6906281830985 H 0.0 **** 0.06
14214 H 144.82283010542565 83.95548513022223 132.93305095166525 H 0.0 **** 0.06
14215 H 146.2298653000579 82.88070042133432 133.10812013280557 H 0.0 **** 0.06
14216 C 62.50720178410134 99.54631264568388 159.35110921186222 C 0.0 **** -0.24
14217 H 61.85727587741383 100.15954289599745 158.72827968394728 H 0.0 **** 0.06
14218 H 62.0425246727786 98.57405115451257 159.51596509939563 H 0.0 **** 0.06
14219 H 62.66363821028017 100.04099194541709 160.3102894562319 H 0.0 **** 0.06
14220 H 63.466961353416735 99.41076817568035 158.85223753078807 H 0.0 **** 0.06
14221 C 145.92184042722317 88.19462934666578 191.14935203037618 C 0.0 **** -0.24
14222 H 145.34249757361667 88.05840810199476 190.23664107170492 H 0.0 **** 0.06
14223 H 145.33032698150922 87.8695889721329 192.00569325744164 H 0.0 **** 0.06
14224 H 146.1783285933891 89.24778506907171 191.2628532237852 H 0.0 **** 0.06
14225 H 146.8343619718152 87.60147665906385 191.09214192969915 H 0.0 **** 0.06
14226 C 165.69129443934835 102.28787143324686 87.05396748330492 C 0.0 **** -0.24
14227 H 165.67308010089528 103.37749864666839 87.05329998829342 H 0.0 **** 0.06
14228 H 165.83876412859186 101.92783571228634 88.07235820457143 H 0.0 **** 0.06
14229 H 166.50830842582812 101.93777606542406 86.42287551921513 H 0.0 **** 0.06
14230 H 164.7456225021409 101.90903571142414 86.66688124542245 H 0.0 **** 0.06
14231 C 111.26949987300156 175.14860729214774 29.545896552648742 C 0.0 **** -0.24
14232 H 111.20230082712021 176.161201959771 29.94389656928857 H 0.0 **** 0.06
14233 H 112.3032196585325 174.93619677325165 29.267902090628198 H 0.0 **** 0.06
14234 H 110.63079638317964 175.05976882280535 28.667171761602248 H 0.0 **** 0.06
14235 H 110.94431031624953 174.43701452486894 30.30563281887244 H 0.0 **** 0.06
14236 C 62.97505642097519 102.95444910987447 198.8476314980937 C 0.0 **** -0.24
14237 H 63.17837238867162 103.51708265059486 199.75957383694674 H 0.0 **** 0.06
14238 H 61.95715726109643 102.56599461700114 198.8799593300874 H 0.0 **** 0.06
14239 H 63.67863780147377 102.12553854540604 198.76866818433004 H 0.0 **** 0.06
14240 H 63.087095750008416 103.61008649415271 197.9840861941952 H 0.0 **** 0.06
14241 C 45.54978056958072 111.00637897874529 126.7126254191721 C 0.0 **** -0.24
14242 H 44.52323880069494 110.9742413669288 127.07789635427716 H 0.0 **** 0.06
14243 H 45.56387667830529 110.77764840789285 125.64694474000729 H 0.0 **** 0.06
14244 H 46.14922758831858 110.27169523327507 127.25020959678383 H 0.0 **** 0.06
14245 H 45.962254948283544 112.00155579128347 126.87670974696331 H 0.0 **** 0.06
14246 C 186.33786575186326 137.0144486927794 182.11701754541372 C 0.0 **** -0.24
14247 H 186.06512359825086 136.42356873355095 182.99176281509284 H 0.0 **** 0.06
14248 H 186.83720956149352 137.92940845218396 182.4377668374114 H 0.0 **** 0.06
14249 H 185.43941587906184 137.26926002685252 181.55579952101928 H 0.0 **** 0.06
14250 H 187.0105576952871 136.4357053025326 181.4832570688672 H 0.0 **** 0.06
14251 C 125.55509257575014 122.5595741724267 24.813605018595965 C 0.0 **** -0.24
14252 H 124.86685088655196 122.18596057591344 24.05603791267741 H 0.0 **** 0.06
14253 H 125.38726603071058 122.02755989129594 25.75005081975658 H 0.0 **** 0.06
14254 H 125.38558393950805 123.6256210989672 24.964940588638186 H 0.0 **** 0.06
14255 H 126.58168217616796 122.39833031386712 24.482848433917297 H 0.0 **** 0.06
14256 C 129.22447318548873 148.85429397405858 75.73820100228198 C 0.0 **** -0.24
14257 H 130.09102013018543 148.58808795757204 76.34432512697134 H 0.0 **** 0.06
14258 H 129.397665216439 148.5498044940599 74.7053886342282 H 0.0 **** 0.06
14259 H 129.07002350779345 149.93161323944184 75.77950642839414 H 0.0 **** 0.06
14260 H 128.34172427185047 148.3450359772621 76.12436330241042 H 0.0 **** 0.06
14261 C 147.12066150504145 30.00898297682255 63.768643818495576 C 0.0 **** -0.24
14262 H 147.04824351850564 29.842687162046275 64.84383730696727 H 0.0 **** 0.06
14263 H 146.31117942415298 29.479763617749683 63.26410804008276 H 0.0 **** 0.06
14264 H 148.0793304954515 29.636493605196506 63.407784960667826 H 0.0 **** 0.06
14265 H 147.04335779728265 31.07549816007139 63.560424812297626 H 0.0 **** 0.06
14266 C 182.92974416812882 85.20859450354027 47.757844092558415 C 0.0 **** -0.24
14267 H 183.16892282291585 84.8145827031214 48.745439124914114 H 0.0 **** 0.06
14268 H 182.90813848689908 84.39117958792286 47.03684912690346 H 0.0 **** 0.06
14269 H 183.68683557505983 85.93448972223592 47.46315206593573 H 0.0 **** 0.06
14270 H 181.9533484970325 85.69251344036994 47.787486037758555 H 0.0 **** 0.06
14271 C 130.11499668074447 5.2465079676931055 94.18757979075963 C 0.0 **** -0.24
14272 H 130.7303719174225 5.910543320720137 93.5818611958266 H 0.0 **** 0.06
14273 H 129.2892773509947 4.8656582936638415 93.58588899504434 H 0.0 **** 0.06
14274 H 129.7197525605312 5.7957477485131506 95.04195466471128 H 0.0 **** 0.06
14275 H 130.72228839507582 4.412454390361461 94.5412832224327 H 0.0 **** 0.06
14276 C 57.54213680341468 78.79684262433207 93.51101842261238 C 0.0 **** -0.24
14277 H 56.701784809506535 78.19318285072586 93.16898468861811 H 0.0 **** 0.06
14278 H 57.74921539614445 78.57158941184977 94.55744431124143 H 0.0 **** 0.06
14279 H 57.29577194889137 79.85375785613405 93.4084453386036 H 0.0 **** 0.06
14280 H 58.421775059116214 78.56884037861869 92.90919935198642 H 0.0 **** 0.06
14281 C 44.625472418109084 141.12729013053672 12.064479114085145 C 0.0 **** -0.24
14282 H 44.18556474263005 140.27858471989475 12.59019300068968 H 0.0 **** 0.06
14283 H 43.90003649288734 141.93985925723644 12.016668755339424 H 0.0 **** 0.06
14284 H 44.900642978712185 140.82554354782587 11.054363366683134 H 0.0 **** 0.06
14285 H 45.513941624775356 141.46379328066473 12.598739144288174 H 0.0 **** 0.06
14286 C 50.87923404057118 11.313692806579866 184.92019296054085 C 0.0 **** -0.24
14287 H 50.37860962523774 12.083374279658415 185.5081940844775 H 0.0 **** 0.06
14288 H 51.959465950921384 11.440424901455629 185.00077029953871 H 0.0 **** 0.06
14289 H 50.57925067597384 11.402475001188378 183.87536406723194 H 0.0 **** 0.06
14290 H 50.59983377959094 10.329849004285279 185.29609392111598 H 0.0 **** 0.06
14291 C 183.50992475289428 146.29411285135149 134.56230715978256 C 0.0 **** -0.24
14292 H 183.30943515307072 145.23194524936264 134.6980332081867 H 0.0 **** 0.06
14293 H 183.32284121192708 146.82154088430687 135.49769216158342 H 0.0 **** 0.06
14294 H 182.8566153055312 146.69051243709902 133.78459716797119 H 0.0 **** 0.06
14295 H 184.55055095006503 146.4323447613474 134.2675195131078 H 0.0 **** 0.06
14296 C 106.12939106328758 66.88094559825318 191.93044991081672 C 0.0 **** -0.24
14297 H 105.0926599421235 66.65314416391111 192.18082922145516 H 0.0 **** 0.06
14298 H 106.79038458192323 66.40366515456557 192.65348422220586 H 0.0 **** 0.06
14299 H 106.2805959605007 67.96052141235685 191.95671477701876 H 0.0 **** 0.06
14300 H 106.35211672246277 66.50784659261629 190.93165961345852 H 0.0 **** 0.06
14301 C 136.75355556162208 120.37365720510743 1.2127856799861263 C 0.0 **** -0.24
14302 H 137.6518730537076 120.5610458538871 0.6232690196295607 H 0.0 **** 0.06
14303 H 136.28206652059993 121.32343469018903 1.4680121010406992 H 0.0 **** 0.06
14304 H 137.02428377339015 119.8451029996921 2.1266671624637183 H 0.0 **** 0.06
14305 H 136.05884855196766 119.76579282046836 0.6337608726660733 H 0.0 **** 0.06
14306 C 166.45634696887518 92.2393767535927 179.60767965367555 C 0.0 **** -0.24
14307 H 167.0250984565654 91.37173219366986 179.27459809258545 H 0.0 **** 0.06
14308 H 167.096772787409 93.12186040273502 179.591033752977 H 0.0 **** 0.06
14309 H 166.09468916138536 92.07073712522927 180.6220360947237 H 0.0 **** 0.06
14310 H 165.60735075625098 92.39394542730736 178.9415575590646 H 0.0 **** 0.06
14311 C 33.40449555143755 148.4698881078475 49.070715610001 C 0.0 **** -0.24
14312 H 33.33728329649267 148.0128492786004 50.0572979301233 H 0.0 **** 0.06
14313 H 33.434825471092324 149.55434309644448 49.17483164882442 H 0.0 **** 0.06
14314 H 32.534683814822216 148.1854496145767 48.47853491977037 H 0.0 **** 0.06
14315 H 34.31118962334318 148.12691044176816 48.57219794128609 H 0.0 **** 0.06
14316 C 21.073214334090352 15.014650107434676 123.42522737768303 C 0.0 **** -0.24
14317 H 21.208491871469604 15.095064429024305 122.34692862781571 H 0.0 **** 0.06
14318 H 20.10656288794675 15.436824197707395 123.70265436652005 H 0.0 **** 0.06
14319 H 21.868048342571498 15.560465365974778 123.93361628938638 H 0.0 **** 0.06
14320 H 21.108893930379494 13.965248651046366 123.71822437037275 H 0.0 **** 0.06
14321 C 120.9620533883949 6.220626676426669 98.79627455568189 C 0.0 **** -0.24
14322 H 120.42988529308278 6.137306812817812 99.74347758803023 H 0.0 **** 0.06
14323 H 120.84596047373316 5.295080817423532 98.23247585244042 H 0.0 **** 0.06
14324 H 122.0209842289573 6.397577564226523 98.99001042085766 H 0.0 **** 0.06
14325 H 120.55345563977542 7.051623568820311 98.22193866863051 H 0.0 **** 0.06
14326 C 6.658763262314295 198.69149187618746 167.32944202116107 C 0.0 **** -0.24
14327 H 6.669533116320906 199.44236652926344 168.11868147810424 H 0.0 **** 0.06
14328 H 7.10472360132232 199.10760251758688 166.42598311449416 H 0.0 **** 0.06
14329 H 5.630363427483843 198.3940179199558 167.12377794130953 H 0.0 **** 0.06
14330 H 7.231810698913449 197.82023159425637 167.64911822105137 H 0.0 **** 0.06
14331 C 70.12664472198423 185.8244338394237 114.23115319198465 C 0.0 **** -0.24
14332 H 70.05513572597744 186.86384014051006 113.91105995001976 H 0.0 **** 0.06
14333 H 71.06438462588352 185.3978973880999 113.87503212989154 H 0.0 **** 0.06
14334 H 69.29004372425112 185.2597794646138 113.81903803799514 H 0.0 **** 0.06
14335 H 70.09499257336279 185.77711862257794 115.31979918601246 H 0.0 **** 0.06
14336 C 36.08459299262836 127.71600046897075 120.15182301486539 C 0.0 **** -0.24
14337 H 36.47092720210361 128.23402032894455 121.02915360729986 H 0.0 **** 0.06
14338 H 36.74176270470605 126.88216354202666 119.90270526118968 H 0.0 **** 0.06
14339 H 36.039997208425575 128.40899326560103 119.31129526670688 H 0.0 **** 0.06
14340 H 35.08335342605886 127.33899966222816 120.3648686564105 H 0.0 **** 0.06
14341 C 68.26381807091815 103.19443074458786 48.199267738995175 C 0.0 **** -0.24
14342 H 67.20686748040004 103.104896605985 47.94804518174902 H 0.0 **** 0.06
14343 H 68.74011330473797 102.21717125359189 48.115700780364904 H 0.0 **** 0.06
14344 H 68.36333604890604 103.56175150582712 49.22047060997967 H 0.0 **** 0.06
14345 H 68.74294322162672 103.8919889991476 47.513388579919194 H 0.0 **** 0.06
14346 C 63.567873044484045 159.0478488432249 110.50019906894775 C 0.0 **** -0.24
14347 H 63.739288028393375 158.0668269338817 110.94319297124028 H 0.0 **** 0.06
14348 H 63.35665106179967 158.9340862187227 109.43748791538971 H 0.0 **** 0.06
14349 H 64.4569609139923 159.66451054323028 110.63068195401002 H 0.0 **** 0.06
14350 H 62.72000788721694 159.52477782389755 110.99068666221712 H 0.0 **** 0.06
14351 C 126.43640581426203 12.040063964157412 100.57555430382578 C 0.0 **** -0.24
14352 H 125.87556475200884 11.130909325562655 100.35999267254851 H 0.0 **** 0.06
14353 H 127.39504291959727 12.005392051748906 100.05665212599047 H 0.0 **** 0.06
14354 H 126.60636279692642 12.115616524771255 101.64946403563115 H 0.0 **** 0.06
14355 H 125.86977785739782 12.906196595083479 100.23572246746448 H 0.0 **** 0.06
14356 C 178.1871135912494 15.905210384062201 3.107301216944336 C 0.0 **** -0.24
14357 H 177.09946889454943 15.942449055461736 3.0485222141575363 H 0.0 **** 0.06
14358 H 178.53722601498993 14.936524720500813 2.748313619601319 H 0.0 **** 0.06
14359 H 178.4996147223897 16.044694900913555 4.141744920167682 H 0.0 **** 0.06
14360 H 178.61051565737577 16.696720703698446 2.4891606331653477 H 0.0 **** 0.06
14361 C 5.315517617025137 164.8659527869624 3.6774015041973698 C 0.0 **** -0.24
14362 H 5.125593137146865 165.23384404616843 4.685631335252033 H 0.0 **** 0.06
14363 H 5.30528738125858 165.70196054391468 2.9778065768483515 H 0.0 **** 0.06
14364 H 4.5413814917363595 164.15016955168002 3.400798353819134 H 0.0 **** 0.06
14365 H 6.289983883544608 164.3782938287261 3.6462418521005304 H 0.0 **** 0.06
14366 C 78.28897319302642 65.48147113171343 162.7249976739957 C 0.0 **** -0.24
14367 H 79.25901334426726 65.18151151742099 163.1222986080852 H 0.0 **** 0.06
14368 H 78.2799206695171 66.56053796312501 162.5646588068389 H 0.0 **** 0.06
14369 H 77.50634879259005 65.21180465223955 163.43362289525902 H 0.0 **** 0.06
14370 H 78.11259841655861 64.97253432761646 161.7774630062217 H 0.0 **** 0.06
14371 C 188.91268923037524 128.87671160685204 193.80704042825798 C 0.0 **** -0.24
14372 H 188.94342988267655 127.993968852943 193.16828388078278 H 0.0 **** 0.06
14373 H 189.03210317783626 129.7719033991758 193.19722026328134 H 0.0 **** 0.06
14374 H 189.7198695924477 128.82394215312388 194.53785978834506 H 0.0 **** 0.06
14375 H 187.95485250921234 128.91539186939667 194.32623243896376 H 0.0 **** 0.06
14376 C 193.2948814305851 53.45240589422633 148.0025663509789 C 0.0 **** -0.24
14377 H 192.74687148616715 54.393623251251995 148.05058383547487 H 0.0 **** 0.06
14378 H 192.83067012214838 52.72790599835656 148.67184166733455 H 0.0 **** 0.06
14379 H 194.32893427803086 53.61796765236787 148.30604074818322 H 0.0 **** 0.06
14380 H 193.27266541633597 53.07101137337918 146.98206287966704 H 0.0 **** 0.06
14381 C 20.288011723402064 92.57024085908486 119.88235623871074 C 0.0 **** -0.24
14382 H 21.310437269370766 92.2875618760084 120.13480286082742 H 0.0 **** 0.06
14383 H 19.99915702984805 92.0904238314441 118.94659275655172 H 0.0 **** 0.06
14384 H 20.227063422844367 93.65208710016572 119.76946394225428 H 0.0 **** 0.06
14385 H 19.615933922610452 92.24892290053083 120.67765358375468 H 0.0 **** 0.06
14386 C 99.80856549776354 55.36541702456498 38.114891361245895 C 0.0 **** -0.24
14387 H 100.2548598516772 54.582958661473555 37.50069924642743 H 0.0 **** 0.06
14388 H 99.31135169541346 56.09194977193556 37.470972640690206 H 0.0 **** 0.06
14389 H 100.58675457928103 55.86366063795211 38.69233462198872 H 0.0 **** 0.06
14390 H 99.07966499069082 54.922969122157554 38.79403463837848 H 0.0 **** 0.06
14391 C 65.66489122469298 3.466922588876365 175.97316169408592 C 0.0 **** -0.24
14392 H 65.78492425448815 2.7580207827846834 176.79265970664525 H 0.0 **** 0.06
14393 H 66.64462765166192 3.8268577515030415 175.65793017605515 H 0.0 **** 0.06
14394 H 65.05786495232013 4.30844648534022 176.30618317485798 H 0.0 **** 0.06
14395 H 65.17241222064987 2.973020036430306 175.13552670095515 H 0.0 **** 0.06
14396 C 83.31013354255722 124.82859406756961 146.17883148153138 C 0.0 **** -0.24
14397 H 82.90641481573692 125.62561435584342 146.80304981448634 H 0.0 **** 0.06
14398 H 83.2538658677644 125.12502433942035 145.13058639429215 H 0.0 **** 0.06
14399 H 82.7293604619729 123.91915916821802 146.33168915094856 H 0.0 **** 0.06
14400 H 84.3491167877304 124.64620243416391 146.44954488356544 H 0.0 **** 0.06
14401 C 178.87544869816978 107.44178917837013 82.55362747176508 C 0.0 **** -0.24
14402 H 179.2229584575009 106.60678718963982 81.94493269033947 H 0.0 **** 0.06
14403 H 177.81722907632752 107.61767282732342 82.35877401421044 H 0.0 **** 0.06
14404 H 179.4450779160149 108.336957437303 82.30126452930813 H 0.0 **** 0.06
14405 H 179.0170311601405 107.20630886424925 83.60888769151848 H 0.0 **** 0.06
14406 C 148.44872895188917 141.71870431994924 151.6270844947827 C 0.0 **** -0.24
14407 H 148.6577444268144 141.7467007491082 152.6965294046738 H 0.0 **** 0.06
14408 H 148.11894509910985 140.7169200969489 151.34812086348268 H 0.0 **** 0.06
14409 H 149.35216934988162 141.9718996308839 151.0726088355874 H 0.0 **** 0.06
14410 H 147.6642432070817 142.43799246176278 151.39117481922563 H 0.0 **** 0.06
14411 C 186.60259527061584 110.30028445672923 85.01547503906875 C 0.0 **** -0.24
14412 H 187.4827000725685 110.11251269818655 84.39889412146755 H 0.0 **** 0.06
14413 H 186.21888285547007 111.29873353785334 84.80697830890551 H 0.0 **** 0.06
14414 H 186.876543147994 110.22789638362508 86.06852548110655 H 0.0 **** 0.06
14415 H 185.83560203594027 109.56078303184395 84.78807522407925 H 0.0 **** 0.06
14416 C 96.67262307702424 83.74176475186829 99.86346840426697 C 0.0 **** -0.24
14417 H 96.58981981541095 82.67235068933567 99.668140789674 H 0.0 **** 0.06
14418 H 97.40327946151379 84.1789797431166 99.18288337362543 H 0.0 **** 0.06
14419 H 96.99509133553337 83.89950726589845 100.89293924713604 H 0.0 **** 0.06
14420 H 95.70341229640954 84.21549660815703 99.70941886390864 H 0.0 **** 0.06
14421 C 40.04138338932498 170.88886674857136 104.88512994326442 C 0.0 **** -0.24
14422 H 39.76126762013271 171.2737892527304 105.86677832771821 H 0.0 **** 0.06
14423 H 40.687754327791225 171.60970358807313 104.38411941466299 H 0.0 **** 0.06
14424 H 39.143530249485394 170.72958003069618 104.28887233109597 H 0.0 **** 0.06
14425 H 40.572010929098326 169.94406716991193 105.00395274188838 H 0.0 **** 0.06
14426 C 44.56151551253926 162.441753155063 189.53048856830492 C 0.0 **** -0.24
14427 H 44.27252215777153 163.16029847007957 188.7644271330114 H 0.0 **** 0.06
14428 H 45.64486528986741 162.4593484607224 189.6542236590776 H 0.0 **** 0.06
14429 H 44.24658658327769 161.44269226813418 189.23007587860025 H 0.0 **** 0.06
14430 H 44.08379354792223 162.70570447736466 190.47465176019023 H 0.0 **** 0.06
14431 C 105.66769487943861 51.39065393530481 77.78829385737646 C 0.0 **** -0.24
14432 H 106.40534184472659 50.856218514280414 77.19025506064474 H 0.0 **** 0.06
14433 H 104.78627129642291 51.595860516030214 77.17987423867872 H 0.0 **** 0.06
14434 H 106.09561922137459 52.32981223860776 78.13761763409961 H 0.0 **** 0.06
14435 H 105.38360375790913 50.77931191589529 78.64538946056464 H 0.0 **** 0.06
14436 C 48.40217930893559 82.14846895975015 80.48437252340148 C 0.0 **** -0.24
14437 H 47.88477247928515 81.2157742480997 80.25902293606006 H 0.0 **** 0.06
14438 H 49.1931361419428 82.31211006588393 79.75186137832614 H 0.0 **** 0.06
14439 H 48.83647237272024 82.0908381010326 81.48216603345293 H 0.0 **** 0.06
14440 H 47.69249827344825 82.9752595299411 80.44570888798461 H 0.0 **** 0.06
14441 C 2.641848926634637 181.99204331238013 103.65726681880253 C 0.0 **** -0.24
14442 H 1.9877469940522445 182.8279243858884 103.90388628113064 H 0.0 **** 0.06
14443 H 3.077190679326158 181.58958375110743 104.57246491946398 H 0.0 **** 0.06
14444 H 3.437332558557962 182.3367620381136 102.99649569589883 H 0.0 **** 0.06
14445 H 2.064427998076212 181.21461950875607 103.15620394881381 H 0.0 **** 0.06
14446 C 88.49836417246567 129.7817502144924 173.8013576742507 C 0.0 **** -0.24
14447 H 87.75394993272656 130.44658877620995 174.24063871310165 H 0.0 **** 0.06
14448 H 88.24198117036832 128.74780238183322 174.03220463054035 H 0.0 **** 0.06
14449 H 89.48075966647193 130.01344814727065 174.213715357862 H 0.0 **** 0.06
14450 H 88.51587358203119 129.91930551805947 172.7203495174897 H 0.0 **** 0.06
14451 C 49.37850649380397 83.34677863503953 186.68198661761974 C 0.0 **** -0.24
14452 H 48.41401766005285 82.9465113422541 186.99226719467174 H 0.0 **** 0.06
14453 H 49.9620790122479 83.61246067299976 187.56373196856953 H 0.0 **** 0.06
14454 H 49.222527806281335 84.23421547637997 186.06843451004767 H 0.0 **** 0.06
14455 H 49.91497968403081 82.59516794295149 186.10404411478055 H 0.0 **** 0.06
14456 C 120.3678338033348 160.72750087818076 135.60988710106994 C 0.0 **** -0.24
14457 H 120.802082899737 159.74066013161772 135.44901214971733 H 0.0 **** 0.06
14458 H 121.15094233595735 161.48254223661397 135.54502383206366 H 0.0 **** 0.06
14459 H 119.90663644869582 160.76494291049596 136.59607356702685 H 0.0 **** 0.06
14460 H 119.61226621649291 160.91998658548016 134.84797400632948 H 0.0 **** 0.06
14461 C 83.92732111567665 135.108851988511 172.030739449135 C 0.0 **** -0.24
14462 H 84.26698944713752 134.76359355943043 171.05449679803422 H 0.0 **** 0.06
14463 H 84.78702601180152 135.25655113769713 172.6829120450915 H 0.0 **** 0.06
14464 H 83.26215420247254 134.3639527197932 172.46760640936836 H 0.0 **** 0.06
14465 H 83.39073511284437 136.05126892269664 171.91611619641532 H 0.0 **** 0.06
14466 C 109.96120237641807 105.34696732140003 90.94087935104938 C 0.0 **** -0.24
14467 H 109.72274715757496 104.80283323992003 90.02720988982807 H 0.0 **** 0.06
14468 H 110.6243492778423 104.74373078622963 91.56067491869263 H 0.0 **** 0.06
14469 H 109.04280872300555 105.55747074066707 91.489609800946 H 0.0 **** 0.06
14470 H 110.45458813944822 106.28518467460393 90.68630052683196 H 0.0 **** 0.06
14471 C 145.17136888380256 80.2669462681738 193.59066264681545 C 0.0 **** -0.24
14472 H 145.29468680819755 79.5102015497688 194.36585605364593 H 0.0 **** 0.06
14473 H 146.05027424002927 80.27084894194877 192.94532177200878 H 0.0 **** 0.06
14474 H 145.05527042243594 81.24670138410715 194.05439074577617 H 0.0 **** 0.06
14475 H 144.28640661468867 80.03813869754504 192.99732585503904 H 0.0 **** 0.06
14476 C 153.6003623546316 122.92717343982861 176.6352645028543 C 0.0 **** -0.24
14477 H 152.83520369506743 123.00404480527544 177.40721507350693 H 0.0 **** 0.06
14478 H 153.76165327535983 121.87726968903883 176.38720992630314 H 0.0 **** 0.06
14479 H 154.530858767844 123.36097759700488 177.0004727243974 H 0.0 **** 0.06
14480 H 153.2740128248575 123.46447576810255 175.74467263214393 H 0.0 **** 0.06
14481 C 133.1255648681578 143.22300066651934 72.56804231698615 C 0.0 **** -0.24
14482 H 132.24532917422462 143.86683055695698 72.59750284956733 H 0.0 **** 0.06
14483 H 133.44606573902732 143.0003789750231 73.58544609190658 H 0.0 **** 0.06
14484 H 133.9291187114064 143.73165602935774 72.03555699106091 H 0.0 **** 0.06
14485 H 132.8787613736311 142.2949052087895 72.052260829222 H 0.0 **** 0.06
14486 C 68.76791911550913 187.78176036203655 42.08263239864358 C 0.0 **** -0.24
14487 H 67.76207892473658 187.3733429145591 41.984937052160305 H 0.0 **** 0.06
14488 H 69.25547781906374 187.78439535128427 41.10720466013812 H 0.0 **** 0.06
14489 H 69.34379986795858 187.1656218670044 42.77395751743333 H 0.0 **** 0.06
14490 H 68.71094215643262 188.80098210575017 42.463278324299395 H 0.0 **** 0.06
14491 C 179.99245693096137 50.447720978533724 25.32416000359109 C 0.0 **** -0.24
14492 H 179.57011883248566 50.067706577704485 26.254313896849055 H 0.0 **** 0.06
14493 H 180.10218537117206 51.530079652788274 25.390061803909475 H 0.0 **** 0.06
14494 H 179.32843451747897 50.19853683458524 24.49605180183255 H 0.0 **** 0.06
14495 H 180.96816834203216 49.99233693984446 25.15575782349194 H 0.0 **** 0.06
14496 C 126.34116440051514 184.1538006029199 181.48744540625896 C 0.0 **** -0.24
14497 H 126.48669233182875 184.20998224590022 180.40825870068846 H 0.0 **** 0.06
14498 H 126.6818324359621 183.1830118621944 181.8492398513185 H 0.0 **** 0.06
14499 H 125.28314187620768 184.2771261814391 181.71781644003033 H 0.0 **** 0.06
14500 H 126.91410372786035 184.9442183362632 181.9734588224138 H 0.0 **** 0.06
14501 C 181.17465054683717 149.5359652937753 103.8457568336687 C 0.0 **** -0.24
14502 H 180.81723988599165 148.53244093559007 104.0749121246298 H 0.0 **** 0.06
14503 H 182.2302252298711 149.614553186863 104.10840820332021 H 0.0 **** 0.06
14504 H 180.6015303118887 150.26504855524033 104.41986963583031 H 0.0 **** 0.06
14505 H 181.04872350598777 149.7323297342834 102.78081642306444 H 0.0 **** 0.06
14506 C 124.84556781911397 142.1719401368689 40.047893207182824 C 0.0 **** -0.24
14507 H 124.01445338448877 141.82556622942974 40.663633926311235 H 0.0 **** 0.06
14508 H 125.78230154567416 141.78878873071275 40.45295445337794 H 0.0 **** 0.06
14509 H 124.86711789184625 143.2623481129885 40.049216676807816 H 0.0 **** 0.06
14510 H 124.71569720209538 141.81187759106675 39.02801074466245 H 0.0 **** 0.06
14511 C 53.368322532843706 85.27414134038352 81.98283619270501 C 0.0 **** -0.24
14512 H 53.19961433895253 85.56269508188385 83.02111409455162 H 0.0 **** 0.06
14513 H 53.78442137294121 84.2673998754517 81.94930928325815 H 0.0 **** 0.06
14514 H 54.06654715714751 85.97163793320519 81.52106618399324 H 0.0 **** 0.06
14515 H 52.42231177990476 85.29603867704466 81.44257345388465 H 0.0 **** 0.06
14516 C 50.328434918218306 114.28796959325226 64.14633870797536 C 0.0 **** -0.24
14517 H 50.67959635998963 113.47674170169986 64.78493220621237 H 0.0 **** 0.06
14518 H 51.179552552869325 114.74596204481941 63.640929565859835 H 0.0 **** 0.06
14519 H 49.822165721922204 115.03641837502266 64.75672106747297 H 0.0 **** 0.06
14520 H 49.63469623006466 113.8923391068453 63.40571613569904 H 0.0 **** 0.06
14521 C 41.64152038908735 160.26327088411645 8.361712768808417 C 0.0 **** -0.24
14522 H 42.586957055603335 160.78042873050074 8.525447169803698 H 0.0 **** 0.06
14523 H 40.81696843021848 160.91044865648098 8.660697184338403 H 0.0 **** 0.06
14524 H 41.62017050015078 159.34943040168602 8.954802492413307 H 0.0 **** 0.06
14525 H 41.543077017332806 160.0133151498556 7.305184623094192 H 0.0 **** 0.06
14526 C 28.829974109819588 5.5661111429321295 121.23391629244972 C 0.0 **** -0.24
14527 H 28.834775696315475 6.22397201663 122.10336250226442 H 0.0 **** 0.06
14528 H 29.165155643980214 4.5721609713928615 121.53016462879853 H 0.0 **** 0.06
14529 H 29.50034512234842 5.964105082716344 120.4723578872308 H 0.0 **** 0.06
14530 H 27.818422494210708 5.50408354265943 120.831377337644 H 0.0 **** 0.06
14531 C 21.73334188985949 180.6089317656913 0.10335926103857673 C 0.0 **** -0.24
14532 H 22.398401856443158 181.46616345034386 0.2032729291410078 H 0.0 **** 0.06
14533 H 22.321659130599286 179.6907236978081 0.10522338672799947 H 0.0 **** 0.06
14534 H 21.182205132246523 180.68448391583928 -0.834182650959832 H 0.0 **** 0.06
14535 H 21.032064089287573 180.59302022744959 0.9376103922364223 H 0.0 **** 0.06
14536 C 5.7705315443691845 68.16826021412857 159.71810533689455 C 0.0 **** -0.24
14537 H 5.108671203455081 68.60509936606223 160.46649503862594 H 0.0 **** 0.06
14538 H 5.680865882074109 68.72515571567416 158.78564936375093 H 0.0 **** 0.06
14539 H 5.491734872829184 67.12838903673997 159.54986736037057 H 0.0 **** 0.06
14540 H 6.800477435655331 68.21594335228349 160.07295245980748 H 0.0 **** 0.06
14541 C 198.31824883390166 147.96510732651225 90.81718010546484 C 0.0 **** -0.24
14542 H 198.35115880511995 146.93215112591542 91.16565985296677 H 0.0 **** 0.06
14543 H 197.34146554970334 148.39210719495756 91.0420182389725 H 0.0 **** 0.06
14544 H 198.487321926868 147.99050123624352 89.74077910402923 H 0.0 **** 0.06
14545 H 199.09322007790743 148.54255519259254 91.32078332757999 H 0.0 **** 0.06
14546 C 81.16736497855118 109.64715597237165 119.33690627485379 C 0.0 **** -0.24
14547 H 81.65655729592456 110.20669963404859 118.53904634442671 H 0.0 **** 0.06
14548 H 81.04111254703597 110.2913438900525 120.20630083641495 H 0.0 **** 0.06
14549 H 81.78162332900601 108.78757642434616 119.60660866589737 H 0.0 **** 0.06
14550 H 80.19169310907779 109.30362101310644 118.9938555393484 H 0.0 **** 0.06
14551 C 58.18015864983772 48.25426015069877 20.636805538370652 C 0.0 **** -0.24
14552 H 57.3452053863366 48.14249781783322 19.944737679181117 H 0.0 **** 0.06
14553 H 57.83088421265785 48.73225489498833 21.551904478073652 H 0.0 **** 0.06
14554 H 58.953539900950545 48.868484677628246 20.177687566906457 H 0.0 **** 0.06
14555 H 58.58868283760796 47.27152523822177 20.873539091379882 H 0.0 **** 0.06
14556 C 179.79777316110852 169.1048088053061 114.5412623519774 C 0.0 **** -0.24
14557 H 179.4163520202231 169.45808692989178 115.49894452684177 H 0.0 **** 0.06
14558 H 179.48701752298055 168.07158471124828 114.38499144404932 H 0.0 **** 0.06
14559 H 180.88646325669498 169.16218857880983 114.54090299910428 H 0.0 **** 0.06
14560 H 179.40056358220605 169.72896075502953 113.74018457968049 H 0.0 **** 0.06
14561 C 14.166800722246535 29.325378979576726 86.31052917600124 C 0.0 **** -0.24
14562 H 13.836077387665767 28.291093709567136 86.2109261694554 H 0.0 **** 0.06
14563 H 13.33231578452569 29.994815481533337 86.10093588365828 H 0.0 **** 0.06
14564 H 14.974062743576212 29.5179416838795 85.60286375554932 H 0.0 **** 0.06
14565 H 14.524966603764028 29.496001625999014 87.32591275011907 H 0.0 **** 0.06
14566 C 33.71892200818985 37.60180323048726 142.49003024393437 C 0.0 **** -0.24
14567 H 33.40152980870596 37.221053883992795 143.4610064629234 H 0.0 **** 0.06
14568 H 34.145439250015215 38.597100988118385 142.61348505897297 H 0.0 **** 0.06
14569 H 32.8581148475065 37.65472981504135 141.8228777066767 H 0.0 **** 0.06
14570 H 34.467896795747095 36.93414004407674 142.06532764446604 H 0.0 **** 0.06
14571 C 128.3093906185264 154.0083629945818 115.74736277402587 C 0.0 **** -0.24
14572 H 128.6148350763642 153.16149151152777 115.13389066437253 H 0.0 **** 0.06
14573 H 127.84757939782966 154.76691945434408 115.11498852855135 H 0.0 **** 0.06
14574 H 129.18358152075768 154.431738562667 116.24334070326148 H 0.0 **** 0.06
14575 H 127.5923954579265 153.67380027576672 116.49697627815232 H 0.0 **** 0.06
14576 C 139.1028991658574 108.65107998595488 66.89719983626458 C 0.0 **** -0.24
14577 H 139.12109515814015 108.92885160640381 65.8433276828347 H 0.0 **** 0.06
14578 H 139.81626217694316 107.84564974565635 67.07235128120165 H 0.0 **** 0.06
14579 H 138.10148144628533 108.31484078373342 67.16635302172185 H 0.0 **** 0.06
14580 H 139.37178958169082 109.51467567980225 67.50578188674179 H 0.0 **** 0.06
14581 C 183.37297407039745 104.17149991761286 30.80239738844577 C 0.0 **** -0.24
14582 H 182.57079156591143 104.32019391039688 31.52442507698423 H 0.0 **** 0.06
14583 H 182.94829173777015 103.87620490022852 29.842296102986197 H 0.0 **** 0.06
14584 H 184.0426151547751 103.38846746418756 31.160145496014408 H 0.0 **** 0.06
14585 H 183.93159933977742 105.09950986853616 30.683355348293176 H 0.0 **** 0.06
14586 C 157.91758290520784 172.0535044219208 174.63898268607971 C 0.0 **** -0.24
14587 H 157.59849644999707 172.05982500000295 173.59677802022554 H 0.0 **** 0.06
14588 H 157.41011930441832 172.85302856464872 175.17885723077302 H 0.0 **** 0.06
14589 H 158.99593701153395 172.20795778644683 174.68870476463684 H 0.0 **** 0.06
14590 H 157.66609301877935 171.0938978125487 175.0894875715042 H 0.0 **** 0.06
14591 C 7.532884299113562 64.93131232166257 69.29018340207305 C 0.0 **** -0.24
14592 H 6.930373590804379 64.07183213114196 69.58471920448889 H 0.0 **** 0.06
14593 H 6.88983833687513 65.68999803766297 68.84366961120942 H 0.0 **** 0.06
14594 H 8.282465776651435 64.61627748014129 68.56378657253286 H 0.0 **** 0.06
14595 H 8.02902722641727 65.34433291982552 70.16826987648324 H 0.0 **** 0.06
14596 C 2.7585340678198804 82.71327163189744 9.865073333298028 C 0.0 **** -0.24
14597 H 2.2848971975497534 83.64023504879577 10.186334275639808 H 0.0 **** 0.06
14598 H 2.4745324797725345 81.9066250233368 10.542503090228792 H 0.0 **** 0.06
14599 H 3.841901686747491 82.83428662664278 9.879061356549528 H 0.0 **** 0.06
14600 H 2.4330984562443234 82.47029678006959 8.853882672557006 H 0.0 **** 0.06
14601 C 181.82685759762595 35.15518157299185 113.47269194143615 C 0.0 **** -0.24
14602 H 181.811377130104 34.332125750240905 112.75915979660903 H 0.0 **** 0.06
14603 H 182.71270569660064 35.76722811053115 113.30244838569786 H 0.0 **** 0.06
14604 H 181.85052514156982 34.75554096595138 114.48687285762324 H 0.0 **** 0.06
14605 H 180.93269063246873 35.764772153897596 113.3432143756211 H 0.0 **** 0.06
14606 C 169.69127274489043 139.35155465818931 155.09762422418208 C 0.0 **** -0.24
14607 H 169.06518982183414 138.65753944466695 155.65885033744195 H 0.0 **** 0.06
14608 H 170.65080504259063 139.4648413693514 155.6036554539851 H 0.0 **** 0.06
14609 H 169.19600873685903 140.32017941836412 155.03581563094494 H 0.0 **** 0.06
14610 H 169.85391083569908 138.962218922969 154.09267536186817 H 0.0 **** 0.06
14611 C 195.85714716185953 69.95084479589843 19.51877525056352 C 0.0 **** -0.24
14612 H 195.25973985915357 69.37656736161136 20.22707436211965 H 0.0 **** 0.06
14613 H 196.8265443644134 70.17771354221867 19.96269227144373 H 0.0 **** 0.06
14614 H 195.34080769325337 70.88077110922205 19.27886838308956 H 0.0 **** 0.06
14615 H 196.00110772275144 69.36973428030439 18.608159745643093 H 0.0 **** 0.06
14616 C 150.59399760222306 74.89516458874556 175.8169077469452 C 0.0 **** -0.24
14617 H 149.98172203374935 75.70022348518808 175.41165169817035 H 0.0 **** 0.06
14618 H 151.61686393500298 74.99680762378995 175.45170933359398 H 0.0 **** 0.06
14619 H 150.18821749910134 73.93455354419677 175.4992402847216 H 0.0 **** 0.06
14620 H 150.59119597066535 74.94971590268 176.90577229238372 H 0.0 **** 0.06
14621 C 33.0034885543013 90.33076477646361 65.5557385335464 C 0.0 **** -0.24
14622 H 33.06121336954101 91.16649299230897 66.25319740680298 H 0.0 **** 0.06
14623 H 33.04126988325429 89.39221792367854 66.10965737302139 H 0.0 **** 0.06
14624 H 33.843320915003375 90.37734024889156 64.8625877489139 H 0.0 **** 0.06
14625 H 32.068481051543515 90.38648592497677 64.9987836039205 H 0.0 **** 0.06
14626 C 131.87432098019613 165.2911812403604 132.24355036734232 C 0.0 **** -0.24
14627 H 131.84052179279976 165.05109474083835 133.3068545562087 H 0.0 **** 0.06
14628 H 131.8497271840549 164.3689501887401 131.66248519974636 H 0.0 **** 0.06
14629 H 132.79321634022023 165.83485162152294 132.0232561904308 H 0.0 **** 0.06
14630 H 131.014942581128 165.90874215932166 131.98320453566998 H 0.0 **** 0.06
14631 C 91.92052090051061 16.60728290202674 138.01641033696285 C 0.0 **** -0.24
14632 H 92.0820138958276 15.782982317136202 138.7109751199216 H 0.0 **** 0.06
14633 H 92.42506174825513 16.3928522968439 137.07378169734852 H 0.0 **** 0.06
14634 H 92.32296892951035 17.525958300477754 138.44280190666413 H 0.0 **** 0.06
14635 H 90.85203902844927 16.727338693649102 137.83808262391707 H 0.0 **** 0.06
14636 C 189.40133141538308 68.629822844432 172.00089467810514 C 0.0 **** -0.24
14637 H 189.21209993727837 68.05479195139168 171.09457376506245 H 0.0 **** 0.06
14638 H 189.50912147491124 67.94901554320228 172.84630549036555 H 0.0 **** 0.06
14639 H 188.56617457610878 69.30521980438022 172.18219732124436 H 0.0 **** 0.06
14640 H 190.31719587586485 69.20742609076763 171.87931572023174 H 0.0 **** 0.06
14641 C 163.5135633998327 58.175771624447094 171.84973342157414 C 0.0 **** -0.24
14642 H 163.4929453454763 57.483988725401886 171.0074549606933 H 0.0 **** 0.06
14643 H 162.60444280995893 58.77685316242065 171.84720089329244 H 0.0 **** 0.06
14644 H 164.38156348770616 58.828668912475536 171.76141214414568 H 0.0 **** 0.06
14645 H 163.57496179447162 57.612630048471715 172.78003898823584 H 0.0 **** 0.06
14646 C 40.56392034987192 188.19381744253968 11.968022001267471 C 0.0 **** -0.24
14647 H 40.94134289246887 188.69882536213942 11.079329765735395 H 0.0 **** 0.06
14648 H 40.32854785386013 188.93363502968742 12.734156090420115 H 0.0 **** 0.06
14649 H 41.32316624318685 187.50879455010224 12.345402436881777 H 0.0 **** 0.06
14650 H 39.66391241192608 187.6345586448349 11.712986738560183 H 0.0 **** 0.06
14651 C 178.50732009884584 133.86224791421128 129.2766837894054 C 0.0 **** -0.24
14652 H 178.02772633165924 134.7798033359534 129.61456617306337 H 0.0 **** 0.06
14653 H 177.75427630231454 133.0845018375514 129.14997245882887 H 0.0 **** 0.06
14654 H 179.24075994178864 133.54133496025216 130.01698884401023 H 0.0 **** 0.06
14655 H 179.00726613661425 134.04275148883906 128.3249248351278 H 0.0 **** 0.06
14656 C 32.11638042225668 154.73157157731976 162.71891523085 C 0.0 **** -0.24
14657 H 31.980231065407153 153.98678518211167 161.93458349788253 H 0.0 **** 0.06
14658 H 31.173509302583042 155.2501535129358 162.89379667363974 H 0.0 **** 0.06
14659 H 32.87437039472175 155.45148948459274 162.4072405107063 H 0.0 **** 0.06
14660 H 32.43710147449225 154.2395606488701 163.63603948142415 H 0.0 **** 0.06
14661 C 118.66230568120636 100.47943984883014 78.95961017648492 C 0.0 **** -0.24
14662 H 118.12781449955207 100.74486466772296 78.04782922085963 H 0.0 **** 0.06
14663 H 118.6717084933149 101.33405758712672 79.63698733636988 H 0.0 **** 0.06
14664 H 119.68727719599389 100.20072938419924 78.71195601231426 H 0.0 **** 0.06
14665 H 118.16358328112153 99.63891220134747 79.44174284941278 H 0.0 **** 0.06
14666 C 105.37882509210988 9.664605569590115 143.94266516678513 C 0.0 **** -0.24
14667 H 104.7338469844014 10.02819403155555 143.1422013192228 H 0.0 **** 0.06
14668 H 106.2066293651593 9.09966109822092 143.5124541227371 H 0.0 **** 0.06
14669 H 104.80441469169432 9.02007455176976 144.60719817338355 H 0.0 **** 0.06
14670 H 105.77019691880042 10.511911820248955 144.5053514780163 H 0.0 **** 0.06
14671 C 148.8625914605717 131.2888235370539 45.46243234078669 C 0.0 **** -0.24
14672 H 149.62868828170804 131.9968628128231 45.14602796029433 H 0.0 **** 0.06
14673 H 148.07565727125507 131.82051207571237 45.99542156882703 H 0.0 **** 0.06
14674 H 149.30867972462318 130.54241090107246 46.120431688205656 H 0.0 **** 0.06
14675 H 148.44086041239825 130.79463646343746 44.586925771908284 H 0.0 **** 0.06
14676 C 142.1105040821308 197.85873942353274 153.7915944282105 C 0.0 **** -0.24
14677 H 141.7466477260043 197.71073908961355 152.7755185917629 H 0.0 **** 0.06
14678 H 142.55245053956804 196.93121417684796 154.15789343782072 H 0.0 **** 0.06
14679 H 141.27959238918524 198.14485004017678 154.43696809560865 H 0.0 **** 0.06
14680 H 142.8629972590325 198.64695842369775 153.79720666962143 H 0.0 **** 0.06
14681 C 141.40236806183958 116.28467235750813 100.01793022448948 C 0.0 **** -0.24
14682 H 142.34565083072363 116.16698042921587 100.55239625325274 H 0.0 **** 0.06
14683 H 140.90195802511425 115.31936472019925 99.94774744633176 H 0.0 **** 0.06
14684 H 141.59753514406452 116.66701426536977 99.01646572762263 H 0.0 **** 0.06
14685 H 140.76632766917294 116.98695955293579 100.55664350021209 H 0.0 **** 0.06
14686 C 147.7221816058459 39.076204247481385 19.814767266186664 C 0.0 **** -0.24
14687 H 146.85562496606 39.63190534577187 20.17419122085724 H 0.0 **** 0.06
14688 H 148.59673721169807 39.342360646903245 20.408661997633743 H 0.0 **** 0.06
14689 H 147.9040939255485 39.32318810419959 18.768731144085848 H 0.0 **** 0.06
14690 H 147.53133551562635 38.00714448001001 19.907204598618364 H 0.0 **** 0.06
14691 C 96.93111256439263 97.9982197197942 29.7240018978776 C 0.0 **** -0.24
14692 H 96.23309368383073 98.27811915342645 28.934959039045765 H 0.0 **** 0.06
14693 H 96.51810015854127 98.28432806352671 30.69188540073128 H 0.0 **** 0.06
14694 H 97.88036465509558 98.51012707631605 29.56788016329196 H 0.0 **** 0.06
14695 H 97.09078467312389 96.92001775922972 29.700591596365314 H 0.0 **** 0.06
14696 C 123.40122407503833 49.76593649921958 179.40482034718053 C 0.0 **** -0.24
14697 H 123.8772286807127 50.16521377790612 180.30084488304703 H 0.0 **** 0.06
14698 H 122.95284963342417 48.79887449710583 179.6329565579622 H 0.0 **** 0.06
14699 H 124.14896784720082 49.6447915292532 178.62010456319882 H 0.0 **** 0.06
14700 H 122.62819183426717 50.455342730613694 179.06718910127734 H 0.0 **** 0.06
14701 C 36.694141338412265 167.62395539949705 3.9598591412906003 C 0.0 **** -0.24
14702 H 36.77949951030473 168.63425866627747 4.358556958238623 H 0.0 **** 0.06
14703 H 35.64189556106953 167.37588792393908 3.8205320604727433 H 0.0 **** 0.06
14704 H 37.14462191522546 166.91902923643374 4.658083332409696 H 0.0 **** 0.06
14705 H 37.21054836704924 167.56664577133813 3.0022642140414035 H 0.0 **** 0.06
14706 C 77.40901799597663 101.05444335885966 18.441693667743436 C 0.0 **** -0.24
14707 H 78.45511468387974 101.06650700974717 18.135047489346817 H 0.0 **** 0.06
14708 H 77.16237112100454 100.07604473165225 18.853106005437212 H 0.0 **** 0.06
14709 H 76.77441247742776 101.25743275191113 17.579066388182582 H 0.0 **** 0.06
14710 H 77.2445840889852 101.81945714097381 19.201300876350132 H 0.0 **** 0.06
14711 C 125.33884860436552 190.9628863122456 52.26099651732221 C 0.0 **** -0.24
14712 H 124.76164880857414 191.4282748720512 53.05977343219945 H 0.0 **** 0.06
14713 H 126.35752816980832 190.78483514743397 52.606195616630345 H 0.0 **** 0.06
14714 H 125.35852131778503 191.62516906717576 51.39506855549158 H 0.0 **** 0.06
14715 H 124.87730455877153 190.01502192903536 51.98427664798231 H 0.0 **** 0.06
14716 C 167.9614791477834 87.3623786001391 5.855273333305298 C 0.0 **** -0.24
14717 H 168.3740920451932 86.39256986155965 5.576287131471226 H 0.0 **** 0.06
14718 H 166.87892501530627 87.2809183980645 5.956137012089705 H 0.0 **** 0.06
14719 H 168.2002410154024 88.09394965911082 5.082646475531611 H 0.0 **** 0.06
14720 H 168.39243276806855 87.6815992233245 6.803630770934056 H 0.0 **** 0.06
14721 C 67.58342163047712 133.52795522222024 97.04534034437287 C 0.0 **** -0.24
14722 H 68.51504234817662 132.9812286053815 97.19066592287078 H 0.0 **** 0.06
14723 H 67.48435915120604 134.28890002012267 97.82070887875744 H 0.0 **** 0.06
14724 H 66.74299432172359 132.83617273092187 97.10581856528015 H 0.0 **** 0.06
14725 H 67.59192952642042 134.00547817350363 96.0654290555864 H 0.0 **** 0.06
14726 C 82.13836790138339 9.593141660244484 179.39486687161354 C 0.0 **** -0.24
14727 H 82.32150932019795 10.439116881804743 180.05750163664175 H 0.0 **** 0.06
14728 H 82.80155490644654 9.657192943416362 178.53229159454693 H 0.0 **** 0.06
14729 H 81.10165461120539 9.61295525807742 179.058687366877 H 0.0 **** 0.06
14730 H 82.32923418699437 8.664090017879197 179.93245202688402 H 0.0 **** 0.06
14731 C 111.22193013530989 32.871732564994886 183.02006893118192 C 0.0 **** -0.24
14732 H 112.2873749606947 33.10205171315164 183.02182932660307 H 0.0 **** 0.06
14733 H 110.71024831658309 33.53013606710638 182.31924856069816 H 0.0 **** 0.06
14734 H 110.816467996126 33.02006485629181 184.0216675033631 H 0.0 **** 0.06
14735 H 111.0749565484341 31.834500802253046 182.71958147769215 H 0.0 **** 0.06
14736 C 40.745346354373766 65.80929855572118 122.45593205016021 C 0.0 **** -0.24
14737 H 40.9045132626935 65.1066686204857 123.27387443851703 H 0.0 **** 0.06
14738 H 41.526425901234575 66.56871630952459 122.47236606124264 H 0.0 **** 0.06
14739 H 39.7724348168844 66.28522621852902 122.57110862769485 H 0.0 **** 0.06
14740 H 40.77757066657753 65.27385507712603 121.50698233583091 H 0.0 **** 0.06
14741 C 168.67495631942094 160.63810556777383 191.373760728861 C 0.0 **** -0.24
14742 H 169.61616435020264 161.0986671718957 191.07318771121146 H 0.0 **** 0.06
14743 H 167.9642389641434 160.69327662816 190.54845490489532 H 0.0 **** 0.06
14744 H 168.27198074284377 161.16815442526908 192.23765343584452 H 0.0 **** 0.06
14745 H 168.8488491309273 159.59465148166498 191.6365221075206 H 0.0 **** 0.06
14746 C 144.49229178208543 75.69210856566092 9.977452491068448 C 0.0 **** -0.24
14747 H 143.8282148033105 74.83430054572035 9.87404148062899 H 0.0 **** 0.06
14748 H 145.21176878817934 75.69490371433182 9.158649274785034 H 0.0 **** 0.06
14749 H 145.02201597257374 75.62896107382483 10.927412666665361 H 0.0 **** 0.06
14750 H 143.9057955398893 76.61061011647344 9.949672143672558 H 0.0 **** 0.06
14751 C 135.80852320511573 180.23114367078585 173.4907126673648 C 0.0 **** -0.24
14752 H 136.01587864914876 179.54574359823204 172.6679167153807 H 0.0 **** 0.06
14753 H 135.81746950779927 179.6803236670828 174.43144853752273 H 0.0 **** 0.06
14754 H 134.82903830534087 180.68726149280093 173.34603871821952 H 0.0 **** 0.06
14755 H 136.57243767911217 181.008209170687 173.51695323209773 H 0.0 **** 0.06
14756 C 30.655282228450872 186.36724031011073 132.5144367317109 C 0.0 **** -0.24
14757 H 31.653605764093626 186.724218199732 132.767257982133 H 0.0 **** 0.06
14758 H 30.48172822621069 186.50263138527953 131.44649995196647 H 0.0 **** 0.06
14759 H 29.91341629789366 186.93249512067564 133.07832201878585 H 0.0 **** 0.06
14760 H 30.573755947883043 185.30930048354247 132.76561095424861 H 0.0 **** 0.06
14761 C 48.403998469600964 70.05664173528113 164.78327962275387 C 0.0 **** -0.24
14762 H 47.81341733695524 70.59264786824458 165.5260090658215 H 0.0 **** 0.06
14763 H 49.45345465230753 70.06453676738768 165.0792443016048 H 0.0 **** 0.06
14764 H 48.2958248045 70.54238950475973 163.81351509214954 H 0.0 **** 0.06
14765 H 48.05329708464106 69.02699280073256 164.7143500314397 H 0.0 **** 0.06
14766 C 10.555928919525428 17.254991920219624 69.32336568947676 C 0.0 **** -0.24
14767 H 11.245321868627485 16.480219957249545 69.65635279580286 H 0.0 **** 0.06
14768 H 9.632020244204938 16.793835181542534 68.97371026815694 H 0.0 **** 0.06
14769 H 11.010377233404512 17.821790699901612 68.51158583821507 H 0.0 **** 0.06
14770 H 10.335000294721283 17.92531433627289 70.1543801882143 H 0.0 **** 0.06
14771 C 145.43261742687156 95.11946975065976 105.3442910817904 C 0.0 **** -0.24
14772 H 146.1839882853153 94.77266239129008 104.63499130920468 H 0.0 **** 0.06
14773 H 145.92491443898857 95.4716009182859 106.25096907413456 H 0.0 **** 0.06
14774 H 144.76005373834118 94.29823386389691 105.59166808667754 H 0.0 **** 0.06
14775 H 144.86280472810432 95.93437455574474 104.90009936054855 H 0.0 **** 0.06
14776 C 12.175748432297475 97.2315235964499 168.77835122454388 C 0.0 **** -0.24
14777 H 12.866129862715532 96.47784524593291 169.1575056965031 H 0.0 **** 0.06
14778 H 12.636831385482076 98.216501096771 168.85185304883845 H 0.0 **** 0.06
14779 H 11.259858099340661 97.21336949489927 169.36825798741194 H 0.0 **** 0.06
14780 H 11.941718455689234 97.01582186872554 167.73550634987924 H 0.0 **** 0.06
14781 C 106.69334798223505 67.80503107595752 0.015752396277093794 C 0.0 **** -0.24
14782 H 107.21722988666284 67.226298340441 -0.7448972277729808 H 0.0 **** 0.06
14783 H 107.30191921980378 67.85028178780813 0.9194758751547738 H 0.0 **** 0.06
14784 H 105.74038951681464 67.32712779572124 0.24191448622434564 H 0.0 **** 0.06
14785 H 106.51461842418107 68.8141190813405 -0.35385387654258693 H 0.0 **** 0.06
14786 C 65.70621925058009 149.7039552970195 45.9301070830968 C 0.0 **** -0.24
14787 H 66.37205345294272 149.01225137811073 45.41516129843066 H 0.0 **** 0.06
14788 H 66.2937355406581 150.3721815628072 46.56014673329082 H 0.0 **** 0.06
14789 H 65.00704675451398 149.14112439344578 46.550158629273426 H 0.0 **** 0.06
14790 H 65.15144090467923 150.28820430856888 45.1961440351011 H 0.0 **** 0.06
14791 C 177.31429057778686 57.1788311725976 46.51601820016644 C 0.0 **** -0.24
14792 H 177.57437222647866 57.6694745005243 45.578228598460996 H 0.0 **** 0.06
14793 H 177.7216596435861 57.750736001757616 47.34969139243648 H 0.0 **** 0.06
14794 H 177.7306870974218 56.1714921279746 46.52667994239364 H 0.0 **** 0.06
14795 H 176.2290131258422 57.12424489722753 46.60787078777946 H 0.0 **** 0.06
14796 C 174.8390252722518 95.74169780178644 164.54869108947136 C 0.0 **** -0.24
14797 H 174.64590539123594 96.46261226406261 165.34304222713484 H 0.0 **** 0.06
14798 H 175.76458278663026 95.20567145963298 164.76158955462944 H 0.0 **** 0.06
14799 H 174.93218962233377 96.265753847035 163.59739862586702 H 0.0 **** 0.06
14800 H 174.01281689623758 95.03264439412902 164.49352158963293 H 0.0 **** 0.06
14801 C 83.17569405420076 73.81592314957368 64.5671009164084 C 0.0 **** -0.24
14802 H 82.75530201401338 72.84173090960064 64.81880454525968 H 0.0 **** 0.06
14803 H 83.20453945037102 73.92978285240758 63.482984863961235 H 0.0 **** 0.06
14804 H 84.18643971625298 73.88980589212139 64.96760711571044 H 0.0 **** 0.06
14805 H 82.55500475574829 74.60070786225623 64.99892544248608 H 0.0 **** 0.06
14806 C 144.3584939042197 109.96432847656305 97.96617313716581 C 0.0 **** -0.24
14807 H 144.93310958087227 109.31189744005675 97.30867237651182 H 0.0 **** 0.06
14808 H 144.5710650748852 109.71037642814278 99.00490724588144 H 0.0 **** 0.06
14809 H 143.2947408917696 109.83255256777991 97.76982826863991 H 0.0 **** 0.06
14810 H 144.636686318623 111.00217132961984 97.78077925358741 H 0.0 **** 0.06
14811 C 81.76791927037999 84.16845046902404 52.1098173585102 C 0.0 **** -0.24
14812 H 81.18551622038638 83.49232975433404 51.48439659175463 H 0.0 **** 0.06
14813 H 82.79475809632262 83.80792169548897 52.17548107790958 H 0.0 **** 0.06
14814 H 81.33060858212633 84.20483729834649 53.107864980150836 H 0.0 **** 0.06
14815 H 81.75910895045615 85.1667352531378 51.672644002462846 H 0.0 **** 0.06
14816 C 147.29405713431169 160.26345861423076 72.50855465102863 C 0.0 **** -0.24
14817 H 146.5463201546085 159.4731969692877 72.44556565980807 H 0.0 **** 0.06
14818 H 147.52145458884928 160.46572755896221 73.55571670968932 H 0.0 **** 0.06
14819 H 146.90687109996202 161.16799250642498 72.03892383133903 H 0.0 **** 0.06
14820 H 148.20119736475343 159.94562361095308 71.99443384968238 H 0.0 **** 0.06
14821 C 33.169399597346654 124.42917826524092 101.24655332849866 C 0.0 **** -0.24
14822 H 33.74377443632939 125.34185676765605 101.40466459713457 H 0.0 **** 0.06
14823 H 32.468157264248475 124.57960690183123 100.42570370814931 H 0.0 **** 0.06
14824 H 32.61910263430964 124.18497005346663 102.15538020486673 H 0.0 **** 0.06
14825 H 33.84782949243109 123.61138045024674 101.00089640960414 H 0.0 **** 0.06
14826 C 198.3853433420452 29.691628690989234 138.49382389296525 C 0.0 **** -0.24
14827 H 198.977596398794 29.07445650964391 137.8187228019595 H 0.0 **** 0.06
14828 H 198.01046886121225 29.07754752207481 139.3132890518234 H 0.0 **** 0.06
14829 H 197.5450510477408 30.122452960082796 137.94889086632188 H 0.0 **** 0.06
14830 H 199.00652858218734 30.492112433110606 138.89449001132306 H 0.0 **** 0.06
14831 C 80.95766295687099 169.71617971571578 20.174202320314507 C 0.0 **** -0.24
14832 H 80.78382859426722 170.79164073190233 20.15191145403965 H 0.0 **** 0.06
14833 H 80.05869793064028 169.2098719104259 20.527632650474146 H 0.0 **** 0.06
14834 H 81.78709860954325 169.49715813406692 20.847794007355077 H 0.0 **** 0.06
14835 H 81.2026220058525 169.36629976898487 19.17199937576315 H 0.0 **** 0.06
14836 C 126.7770611852971 54.47761183108048 170.5379389624878 C 0.0 **** -0.24
14837 H 127.43791024134234 55.195532084043066 171.02344149827562 H 0.0 **** 0.06
14838 H 125.86377752098375 54.37028381122062 171.12456010273775 H 0.0 **** 0.06
14839 H 127.27839408572734 53.51253488006256 170.46630462561075 H 0.0 **** 0.06
14840 H 126.52686871077915 54.833449922644064 169.5390287374768 H 0.0 **** 0.06
14841 C 27.657727719792916 41.278449072010574 110.0683997760587 C 0.0 **** -0.24
14842 H 26.784366242632785 41.42461726363723 110.70452420331208 H 0.0 **** 0.06
14843 H 28.150832926318913 42.23601703779411 109.90318926487862 H 0.0 **** 0.06
14844 H 27.343919310310667 40.86069881968234 109.111752143686 H 0.0 **** 0.06
14845 H 28.34999905307376 40.59115768234648 110.55441584889971 H 0.0 **** 0.06
14846 C 190.3384086646339 66.54277850187945 160.43256571683483 C 0.0 **** -0.24
14847 H 190.9055633067213 65.62291510781405 160.29430290474954 H 0.0 **** 0.06
14848 H 190.85692393734482 67.18628342745015 161.14393764811834 H 0.0 **** 0.06
14849 H 189.34593190047036 66.30381657122311 160.81423801581192 H 0.0 **** 0.06
14850 H 190.24449465012682 67.05856246498466 159.47726904594998 H 0.0 **** 0.06
14851 C 28.755203124417534 132.95316414641206 48.69921549979517 C 0.0 **** -0.24
14852 H 27.746169335195077 133.23592736649408 48.99809079384694 H 0.0 **** 0.06
14853 H 28.88545351044317 131.87883050263295 48.8325337620457 H 0.0 **** 0.06
14854 H 29.479767133975145 133.48665720211739 49.31547183081125 H 0.0 **** 0.06
14855 H 28.908775685804585 133.21198435503769 47.651780422342725 H 0.0 **** 0.06
14856 C 141.02174779503707 101.99346652461443 45.59434602793945 C 0.0 **** -0.24
14857 H 140.3794908469838 101.54883671690749 46.35478079611053 H 0.0 **** 0.06
14858 H 142.05194251596998 102.00135934624623 45.94856516246422 H 0.0 **** 0.06
14859 H 140.6960201664378 103.01469125505716 45.39784606964753 H 0.0 **** 0.06
14860 H 140.9558251439529 101.40854196038597 44.67635574255685 H 0.0 **** 0.06
14861 C 175.35952146864201 124.98071690872092 197.10920759863413 C 0.0 **** -0.24
14862 H 176.23756059661525 124.78128686942122 196.494395721038 H 0.0 **** 0.06
14863 H 174.8982835134568 125.91611681090788 196.79096512307981 H 0.0 **** 0.06
14864 H 175.6581130803321 125.05991244835784 198.15441465640075 H 0.0 **** 0.06
14865 H 174.64492112407424 124.1657370819741 196.99647384132135 H 0.0 **** 0.06
14866 C 115.91952831421679 188.51638365128312 53.58924611092034 C 0.0 **** -0.24
14867 H 116.90071029470462 188.98884338188418 53.63994537329049 H 0.0 **** 0.06
14868 H 115.2321134509505 189.1661839032747 53.045847396379244 H 0.0 **** 0.06
14869 H 115.54317233605249 188.35192412265425 54.59866223565517 H 0.0 **** 0.06
14870 H 116.00270791886393 187.56134926296735 53.072520741198005 H 0.0 **** 0.06
14871 C 79.49644308720644 15.826994699642512 59.21963437486731 C 0.0 **** -0.24
14872 H 78.87090912129122 16.036904534479802 58.35163793734431 H 0.0 **** 0.06
14873 H 80.4585710942415 16.326656856252356 59.10295049263135 H 0.0 **** 0.06
14874 H 79.6527657120381 14.75108211333037 59.303169070535745 H 0.0 **** 0.06
14875 H 79.00267014134965 16.19326791337467 60.11927590143537 H 0.0 **** 0.06
14876 C 95.33391760710856 80.99553000595063 9.491872696375758 C 0.0 **** -0.24
14877 H 96.00104586011705 80.34812304554987 8.923137437802232 H 0.0 **** 0.06
14878 H 95.60567916450157 82.03767201010231 9.32138985152885 H 0.0 **** 0.06
14879 H 95.4227773013566 80.76558602372324 10.55387948236666 H 0.0 **** 0.06
14880 H 94.30544657922877 80.83038434436276 9.169678727718896 H 0.0 **** 0.06
14881 C 125.34202327775463 179.82925920863119 171.29646467911985 C 0.0 **** -0.24
14882 H 125.7477686214001 179.72689573638291 170.29053123481228 H 0.0 **** 0.06
14883 H 124.51980614111599 180.545321805322 171.28510520040933 H 0.0 **** 0.06
14884 H 126.12388638484867 180.18332266615818 171.96867286226845 H 0.0 **** 0.06
14885 H 124.97663196365392 178.86149662666165 171.64154941898946 H 0.0 **** 0.06
14886 C 66.32634851650394 145.39907334574139 165.32434705451394 C 0.0 **** -0.24
14887 H 65.33073745077347 145.80457638903124 165.50409567745848 H 0.0 **** 0.06
14888 H 66.97099781900405 146.18292840223648 164.9269188141327 H 0.0 **** 0.06
14889 H 66.26159588164364 144.5817043659057 164.6061696888284 H 0.0 **** 0.06
14890 H 66.74145238627281 145.02738476748084 166.26179683225945 H 0.0 **** 0.06
14891 C 87.9035913307008 197.59040358733316 82.27123737281232 C 0.0 **** -0.24
14892 H 87.10222448906362 196.85250241789683 82.31222197138993 H 0.0 **** 0.06
14893 H 87.62175912480154 198.39441390594533 81.59170467504259 H 0.0 **** 0.06
14894 H 88.81734492844353 197.11551537396096 81.91492540969875 H 0.0 **** 0.06
14895 H 88.0715361175235 197.99907199008123 83.26775148251 H 0.0 **** 0.06
14896 C 189.63168851855318 124.80552100247462 152.49079335419052 C 0.0 **** -0.24
14897 H 189.65354954177673 125.88523615935975 152.6358483118074 H 0.0 **** 0.06
14898 H 188.72026381140995 124.52891216138414 151.9596283502504 H 0.0 **** 0.06
14899 H 189.65212050300403 124.30901430767113 153.46074712147845 H 0.0 **** 0.06
14900 H 190.50010067557525 124.4991966916605 151.90758719466635 H 0.0 **** 0.06
14901 C 26.822804867903216 23.80677637887777 50.149257027597685 C 0.0 **** -0.24
14902 H 26.07264197010784 23.287888014622467 49.55181481920532 H 0.0 **** 0.06
14903 H 27.72844897320053 23.20260038965131 50.199792201639625 H 0.0 **** 0.06
14904 H 26.437240012465054 23.969398745599534 51.15525919945027 H 0.0 **** 0.06
14905 H 27.052254556017203 24.76752728637743 49.68803991672061 H 0.0 **** 0.06
14906 C 143.43575773427747 85.20377756720981 189.34306989414293 C 0.0 **** -0.24
14907 H 143.2740725328304 85.35759102341879 190.4103608648408 H 0.0 **** 0.06
14908 H 144.4435486047129 84.82068783809592 189.18139580010114 H 0.0 **** 0.06
14909 H 143.31770748124438 86.1513242220721 188.81800880885882 H 0.0 **** 0.06
14910 H 142.70824354130627 84.48497497843135 188.96558396429043 H 0.0 **** 0.06
14911 C 59.278193487164145 175.9153016515948 155.6702686330858 C 0.0 **** -0.24
14912 H 59.8148566618499 176.85283301573506 155.81598501089215 H 0.0 **** 0.06
14913 H 58.29346047230521 175.98451595240707 156.13414791297953 H 0.0 **** 0.06
14914 H 59.83944973185726 175.10096102425624 156.12854088220965 H 0.0 **** 0.06
14915 H 59.164461203092614 175.72401293380247 154.60307592164426 H 0.0 **** 0.06
14916 C 93.31583551664397 93.60150922150439 44.543221180372655 C 0.0 **** -0.24
14917 H 92.26539594558298 93.78438745929205 44.77273146590693 H 0.0 **** 0.06
14918 H 93.93198026015517 94.34605953155997 45.046942497187274 H 0.0 **** 0.06
14919 H 93.46886211863222 93.67024765610776 43.46614478015198 H 0.0 **** 0.06
14920 H 93.59419274550393 92.60536828263594 44.888301144671686 H 0.0 **** 0.06
14921 C 169.45487596316661 23.242908005284818 43.26769203250933 C 0.0 **** -0.24
14922 H 168.3879537241921 23.1104634512499 43.446932251303 H 0.0 **** 0.06
14923 H 170.01009541813784 22.975271184062322 44.165913353099995 H 0.0 **** 0.06
14924 H 169.65332158059428 24.283902737847626 43.01334388865058 H 0.0 **** 0.06
14925 H 169.76577987091574 22.60187996389979 42.442721430746445 H 0.0 **** 0.06
14926 C 72.43088421281243 37.71936357461294 39.26514521135732 C 0.0 **** -0.24
14927 H 71.85261104662413 38.030995183973744 40.134028133505865 H 0.0 **** 0.06
14928 H 71.7908821239991 37.7217990042368 38.38282663104252 H 0.0 **** 0.06
14929 H 72.82037492846479 36.714837912429346 39.429768581121664 H 0.0 **** 0.06
14930 H 73.26082431683642 38.40999563128855 39.11475413916634 H 0.0 **** 0.06
14931 C 15.292244417137752 147.28396198495594 84.1218483959756 C 0.0 **** -0.24
14932 H 15.176608138984179 146.37882657867866 84.71840840047344 H 0.0 **** 0.06
14933 H 16.240688073224803 147.24612568612974 83.58499203566649 H 0.0 **** 0.06
14934 H 15.27914991028824 148.15483553744872 84.77683653401587 H 0.0 **** 0.06
14935 H 14.472641108902096 147.35477075904242 83.40658605065906 H 0.0 **** 0.06
14936 C 186.90707126186098 63.33726829140301 187.31703708642283 C 0.0 **** -0.24
14937 H 187.68284465645348 63.305706894336254 186.55242529817363 H 0.0 **** 0.06
14938 H 185.93125684262068 63.19974827869015 186.85071942868402 H 0.0 **** 0.06
14939 H 186.93548621455852 64.3035334782096 187.82285119218142 H 0.0 **** 0.06
14940 H 187.07850154123255 62.54317347824008 188.04280064241883 H 0.0 **** 0.06
14941 C 2.577410160992841 10.830189798699507 180.32236006201904 C 0.0 **** -0.24
14942 H 3.426296424480114 10.251868638371093 179.95655075880234 H 0.0 **** 0.06
14943 H 2.7828069538991613 11.17560664568208 181.33528455523734 H 0.0 **** 0.06
14944 H 1.6852589464673144 10.204434367762758 180.32500970754407 H 0.0 **** 0.06
14945 H 2.416553451003182 11.689541817259965 179.67062167012963 H 0.0 **** 0.06
14946 C 152.99276888321222 151.6684729762096 84.16861274343248 C 0.0 **** -0.24
14947 H 152.5767505168002 150.79108983749484 83.67251673649815 H 0.0 **** 0.06
14948 H 152.25029667940754 152.08756891225045 84.84871886342833 H 0.0 **** 0.06
14949 H 153.26240951743713 152.41424579690693 83.42039384240258 H 0.0 **** 0.06
14950 H 153.88042694205188 151.38110862216644 84.73157061623522 H 0.0 **** 0.06
14951 C 71.43912927847134 182.8853635918229 80.70454639953545 C 0.0 **** -0.24
14952 H 70.568078811318 182.559189500571 80.13638777351485 H 0.0 **** 0.06
14953 H 71.35990907481795 183.95313334314937 80.90922078505622 H 0.0 **** 0.06
14954 H 72.34322731655931 182.69128297102458 80.12735480670406 H 0.0 **** 0.06
14955 H 71.48490796297784 182.33652376579272 81.64552187948607 H 0.0 **** 0.06
14956 C 75.3931608086929 39.45479434408969 9.249471771897532 C 0.0 **** -0.24
14957 H 76.11988703848553 40.25807516134867 9.37094439782993 H 0.0 **** 0.06
14958 H 75.22823827464553 39.27322056816814 8.186448136658754 H 0.0 **** 0.06
14959 H 74.45297891602522 39.74245357388952 9.719801288478209 H 0.0 **** 0.06
14960 H 75.771848175569 38.54749551806799 9.718541456270941 H 0.0 **** 0.06
14961 C 5.862972825375351 13.086539446673783 164.14054764769224 C 0.0 **** -0.24
14962 H 5.994312975802899 14.164851609599339 164.22414371570733 H 0.0 **** 0.06
14963 H 6.552982038011521 12.693004158203706 163.39495531984056 H 0.0 **** 0.06
14964 H 4.837989815858691 12.868422185525617 163.83854036233134 H 0.0 **** 0.06
14965 H 6.063807648413501 12.62021057053704 165.10557949000994 H 0.0 **** 0.06
14966 C 111.29097435020685 190.41721131905734 25.317844252406132 C 0.0 **** -0.24
14967 H 112.24180044531107 190.9495638093092 25.29912957317947 H 0.0 **** 0.06
14968 H 110.47155394921981 191.1345579151403 25.266895637955827 H 0.0 **** 0.06
14969 H 111.21486895816292 189.84227867545636 26.24063518333952 H 0.0 **** 0.06
14970 H 111.23692977265978 189.7418636370534 24.46442445071267 H 0.0 **** 0.06
14971 C 137.2640602946197 16.09639234954679 182.47073075915955 C 0.0 **** -0.24
14972 H 137.6435134334621 15.374153674082507 181.74804321336393 H 0.0 **** 0.06
14973 H 137.0663187081278 15.594186444603068 183.41788343059847 H 0.0 **** 0.06
14974 H 136.34198828388355 16.537885049049393 182.09339526793605 H 0.0 **** 0.06
14975 H 138.00666889575754 16.880304145114934 182.6234444476631 H 0.0 **** 0.06
14976 C 28.460865287206616 12.375100567298226 71.53969937237132 C 0.0 **** -0.24
14977 H 29.089383533961552 13.260925142742728 71.44633811381279 H 0.0 **** 0.06
14978 H 28.15394005589536 12.255148561965349 72.57883512262643 H 0.0 **** 0.06
14979 H 29.022944160568386 11.496051884607603 71.22296690661915 H 0.0 **** 0.06
14980 H 27.577966473277 12.487674429936611 70.91045816846156 H 0.0 **** 0.06
14981 C 45.10971807695324 14.91071729392668 197.16851450288783 C 0.0 **** -0.24
14982 H 45.697147969604856 14.553569154103485 198.01488736909764 H 0.0 **** 0.06
14983 H 44.74404955721167 14.0581066586439 196.59523852521295 H 0.0 **** 0.06
14984 H 45.73328376044259 15.536990713976948 196.5315348361757 H 0.0 **** 0.06
14985 H 44.26317835561167 15.492583540013854 197.53377860636564 H 0.0 **** 0.06
14986 C 134.42098068750775 29.531482800828343 158.40231041592497 C 0.0 **** -0.24
14987 H 134.00434801658295 30.05980414853599 157.54400715875903 H 0.0 **** 0.06
14988 H 134.07812665875545 30.005645859717788 159.32125391991798 H 0.0 **** 0.06
14989 H 135.50982502242715 29.569413930989185 158.35775768824877 H 0.0 **** 0.06
14990 H 134.09158165592694 28.492228314664544 158.38328172965402 H 0.0 **** 0.06
14991 C 5.102630092919448 187.1943604912438 195.39265733260814 C 0.0 **** -0.24
14992 H 5.531558252027317 186.24768734373197 195.0640659917415 H 0.0 **** 0.06
14993 H 5.61917833437186 188.0176861087843 194.89923102071705 H 0.0 **** 0.06
14994 H 5.215738571396244 187.28874615900725 196.4724228114057 H 0.0 **** 0.06
14995 H 4.04336710687906 187.2221149407602 195.13386912666925 H 0.0 **** 0.06
14996 C 157.24802810072586 84.92489512623928 167.7435613806698 C 0.0 **** -0.24
14997 H 156.72136993421606 85.08490977586192 168.68367527880855 H 0.0 **** 0.06
14998 H 156.8996652818099 85.64744916834658 167.00458187089532 H 0.0 **** 0.06
14999 H 157.05239690707344 83.9144051738916 167.38438986133025 H 0.0 **** 0.06
15000 H 158.3191705998053 85.05264519186684 167.9007439356165 H 0.0 **** 0.06
15001 C 15.286390555298894 43.542623639896306 29.30941400466483 C 0.0 **** -0.24
15002 H 15.71351576444573 42.87615508289693 28.559241072531478 H 0.0 **** 0.06
15003 H 15.992193698874345 43.66414977740129 30.130660001285193 H 0.0 **** 0.06
15004 H 14.357493773445263 43.11433264696734 29.687721160819805 H 0.0 **** 0.06
15005 H 15.081322364698636 44.51327065117789 28.858921964245226 H 0.0 **** 0.06
15006 C 71.94086753098725 90.3559135217109 81.30383083955303 C 0.0 **** -0.24
15007 H 71.17112182422295 89.66722037387271 80.9562147187226 H 0.0 **** 0.06
15008 H 72.92585273143669 89.93347617371504 81.09921760337406 H 0.0 **** 0.06
15009 H 71.82985601679712 90.51335605479849 82.37684667488736 H 0.0 **** 0.06
15010 H 71.83906897155089 91.30839027499135 80.78383875580406 H 0.0 **** 0.06
15011 C 158.20515643881902 24.09253702606935 76.02446321736653 C 0.0 **** -0.24
15012 H 159.29516026188412 24.078386940493772 76.02623173211384 H 0.0 **** 0.06
15013 H 157.8527208382717 24.9476364159797 76.60084404005882 H 0.0 **** 0.06
15014 H 157.82983492064943 23.172866353622 76.47168940583313 H 0.0 **** 0.06
15015 H 157.84509253534145 24.171503575771794 74.99866891415616 H 0.0 **** 0.06
15016 C 41.85302368022428 32.699484809753216 92.6209416789458 C 0.0 **** -0.24
15017 H 41.25030403821768 32.0238098361348 92.01498209154866 H 0.0 **** 0.06
15018 H 41.45613503788661 32.72895934166604 93.63618419263389 H 0.0 **** 0.06
15019 H 41.82237538261961 33.7002978193388 92.18947824187197 H 0.0 **** 0.06
15020 H 42.88398008122704 32.34570426207421 92.64402664476378 H 0.0 **** 0.06
15021 C 77.82871658524687 144.35001034380377 47.70813581600066 C 0.0 **** -0.24
15022 H 77.46882057729015 144.23774478681852 46.685388050733366 H 0.0 **** 0.06
15023 H 77.69038019822973 143.41247606917676 48.24688456614635 H 0.0 **** 0.06
15024 H 77.26690005215005 145.1405428995854 48.20523050985105 H 0.0 **** 0.06
15025 H 78.88658145345747 144.6094155088487 47.69393968336911 H 0.0 **** 0.06
15026 C 173.02355054635206 140.46296434355054 98.6145494014331 C 0.0 **** -0.24
15027 H 172.73466312258438 139.41608746332096 98.52122986084407 H 0.0 **** 0.06
15028 H 172.3207355091792 141.0844023568374 98.05830886665441 H 0.0 **** 0.06
15029 H 174.02693420508044 140.5997315544978 98.21239566653674 H 0.0 **** 0.06
15030 H 173.00984676194554 140.75052934937085 99.66543580704337 H 0.0 **** 0.06
15031 C 97.81686848614083 46.51943537108366 99.31836110006265 C 0.0 **** -0.24
15032 H 98.35988541076784 47.0106693666217 100.12501619172812 H 0.0 **** 0.06
15033 H 97.70405711193746 45.45944180748228 99.5498129520688 H 0.0 **** 0.06
15034 H 98.37089351725945 46.63125446032251 98.3865615348308 H 0.0 **** 0.06
15035 H 96.83216812235156 46.97506657487736 99.21380449619954 H 0.0 **** 0.06
15036 C 13.42861062687345 123.52304597386004 14.795202270225502 C 0.0 **** -0.24
15037 H 12.370242650661623 123.73085194093855 14.947880224201583 H 0.0 **** 0.06
15038 H 13.643208004015577 123.50080877762841 13.726039893071572 H 0.0 **** 0.06
15039 H 13.677895984308066 122.55822548139551 15.236448122279342 H 0.0 **** 0.06
15040 H 14.023285485417006 124.30437294594364 15.269153397901562 H 0.0 **** 0.06
15041 C 152.90587895011944 58.659331276179174 56.09224208513905 C 0.0 **** -0.24
15042 H 151.826740160658 58.518942187893984 56.02917020537387 H 0.0 **** 0.06
15043 H 153.1600102913 59.08614527622231 57.06212802618421 H 0.0 **** 0.06
15044 H 153.23057911521857 59.335720274973426 55.30086516396349 H 0.0 **** 0.06
15045 H 153.4048201732375 57.6968703149048 55.975070178539454 H 0.0 **** 0.06
15046 C 117.087152501021 164.5865069103578 140.12637974866104 C 0.0 **** -0.24
15047 H 117.51392135020421 163.98868124467148 140.93184887258175 H 0.0 **** 0.06
15048 H 117.87182663681753 164.8533779108261 139.41760187235496 H 0.0 **** 0.06
15049 H 116.6480182517073 165.49403437408034 140.5398548760489 H 0.0 **** 0.06
15050 H 116.31628510796565 164.01024267264904 139.6153037657409 H 0.0 **** 0.06
15051 C 46.32236266900645 12.202672382205286 153.0028060757832 C 0.0 **** -0.24
15052 H 46.34310738451143 11.449108367988295 153.79029043910424 H 0.0 **** 0.06
15053 H 45.360677467455446 12.716196288967168 153.0169999677082 H 0.0 **** 0.06
15054 H 46.46190830594986 11.720510799653198 152.0349900203969 H 0.0 **** 0.06
15055 H 47.1227107979349 12.923929324500051 153.16905283403418 H 0.0 **** 0.06
15056 C 88.87940579269639 83.94579137883443 124.24610242505625 C 0.0 **** -0.24
15057 H 89.41122823895907 83.5679353588688 125.11982630343465 H 0.0 **** 0.06
15058 H 87.90709745838794 84.33299593597519 124.5521103247275 H 0.0 **** 0.06
15059 H 88.74018518810269 83.13716822352387 123.52810666409462 H 0.0 **** 0.06
15060 H 89.46012657788404 84.74529563126225 123.78532480347744 H 0.0 **** 0.06
15061 C 171.38188170454185 190.46438535275374 179.73049526536815 C 0.0 **** -0.24
15062 H 170.57046970257477 190.98553826264597 180.23817713610825 H 0.0 **** 0.06
15063 H 172.00731395220265 191.18779134166695 179.20706812735432 H 0.0 **** 0.06
15064 H 170.96650109099235 189.7565689651329 179.01353879655755 H 0.0 **** 0.06
15065 H 171.98382627837339 189.9271866194962 180.4638682587909 H 0.0 **** 0.06
15066 C 78.47553535785678 29.614126219207265 126.84707302058612 C 0.0 **** -0.24
15067 H 78.93643939227238 28.86936549474106 127.4961374417449 H 0.0 **** 0.06
15068 H 77.86083923462745 30.285742248833287 127.44586200967501 H 0.0 **** 0.06
15069 H 77.85107047169483 29.11315868578197 126.10666715833023 H 0.0 **** 0.06
15070 H 79.25347279470651 30.185351477508107 126.34037613520792 H 0.0 **** 0.06
15071 C 73.07403670458183 150.51943037248128 65.82864812382635 C 0.0 **** -0.24
15072 H 73.47619274194528 149.6071177188718 66.2684103454654 H 0.0 **** 0.06
15073 H 72.0683641350708 150.69498097150694 66.21117702673499 H 0.0 **** 0.06
15074 H 73.03683624246173 150.41408251823935 64.7435427477485 H 0.0 **** 0.06
15075 H 73.7154308198663 151.36219836821806 66.08920216332078 H 0.0 **** 0.06
15076 C 107.03107857634578 121.56981326969216 181.84563377426122 C 0.0 **** -0.24
15077 H 107.69484709873802 122.32101004928231 181.41647593605978 H 0.0 **** 0.06
15078 H 106.3745144134447 122.0406282059653 182.5767414680664 H 0.0 **** 0.06
15079 H 107.62525304170296 120.79755227187385 182.33402023501415 H 0.0 **** 0.06
15080 H 106.43192752066483 121.12024434881951 181.0532964109597 H 0.0 **** 0.06
15081 C 81.13049508868602 129.14366865222482 25.561894689882806 C 0.0 **** -0.24
15082 H 81.8272740468559 128.36463126162 25.87246758971989 H 0.0 **** 0.06
15083 H 81.3866146309469 130.07850602762326 26.06054742023518 H 0.0 **** 0.06
15084 H 80.1159852639918 128.8531521462929 25.833319892119775 H 0.0 **** 0.06
15085 H 81.19388281735507 129.27750536366923 24.482682763982623 H 0.0 **** 0.06
15086 C 180.59904526486025 151.06431025156937 65.95939592010977 C 0.0 **** -0.24
15087 H 181.49853592678295 150.63464350301936 66.3998669273248 H 0.0 **** 0.06
15088 H 180.2737424136297 150.44603159467061 65.12159625387986 H 0.0 **** 0.06
15089 H 180.81343295900382 152.07273437794174 65.60636707214165 H 0.0 **** 0.06
15090 H 179.80989394955208 151.10258189563552 66.71008037949686 H 0.0 **** 0.06
15091 C 38.70708060127606 49.82200736144122 77.71490799148552 C 0.0 **** -0.24
15092 H 39.56365395535599 49.628721017336204 77.06831910869516 H 0.0 **** 0.06
15093 H 37.89943608945731 50.257114535649436 77.12665399697681 H 0.0 **** 0.06
15094 H 38.99823043477858 50.51658151753287 78.50369517840068 H 0.0 **** 0.06
15095 H 38.36968553000949 48.88692076982048 78.1606694624067 H 0.0 **** 0.06
15096 C 42.68829474104962 10.565291648411062 38.176374896651936 C 0.0 **** -0.24
15097 H 43.201814087076116 10.30337756127608 37.25157407334986 H 0.0 **** 0.06
15098 H 41.690875094025586 10.939106523444877 37.94410096652449 H 0.0 **** 0.06
15099 H 43.25273001545975 11.336859197368767 38.69979634805708 H 0.0 **** 0.06
15100 H 42.60690226622597 9.681842875667058 38.80951406815525 H 0.0 **** 0.06
15101 C 3.3809822131353826 52.343590450794835 121.59366093353975 C 0.0 **** -0.24
15102 H 4.213283303725916 52.91291758937173 122.00683060166813 H 0.0 **** 0.06
15103 H 2.5678261147023704 53.02311547179046 121.3376695341857 H 0.0 **** 0.06
15104 H 3.0328347784708853 51.62005087317485 122.33048079976072 H 0.0 **** 0.06
15105 H 3.710657586413504 51.81851974105655 120.69674923430807 H 0.0 **** 0.06
15106 C 79.31869201161345 118.17066177087506 163.5874211201935 C 0.0 **** -0.24
15107 H 80.06417706387424 117.37658209979543 163.61800177834547 H 0.0 **** 0.06
15108 H 78.39675806348276 117.78568096351071 163.1490396605214 H 0.0 **** 0.06
15109 H 79.69241814175098 118.99649423502242 162.9824300507375 H 0.0 **** 0.06
15110 H 79.12038753987247 118.52195590766854 164.5997602119082 H 0.0 **** 0.06
15111 C 109.31001619566158 182.62556860016232 130.0444335938555 C 0.0 **** -0.24
15112 H 109.28795518450852 182.6785188393178 131.13311365485185 H 0.0 **** 0.06
15113 H 108.67329812753292 181.80808011486332 129.70781312974032 H 0.0 **** 0.06
15114 H 110.33283901607524 182.45194547872413 129.70979471948795 H 0.0 **** 0.06
15115 H 108.94638961362745 183.56583976955545 129.6281854088911 H 0.0 **** 0.06
15116 C 47.41685612210276 136.64780022003242 194.88318131690713 C 0.0 **** -0.24
15117 H 46.66554987433079 136.83498576277054 195.65027660001212 H 0.0 **** 0.06
15118 H 46.946704987790085 136.67213484082174 193.90052094771988 H 0.0 **** 0.06
15119 H 47.86665710682307 135.66808881796874 195.04725552630393 H 0.0 **** 0.06
15120 H 48.189664123193424 137.41513877172986 194.93638883044883 H 0.0 **** 0.06
15121 C 153.68762614383624 150.1895102306729 151.36154320686387 C 0.0 **** -0.24
15122 H 152.9361873855378 149.41794357223634 151.52750209880747 H 0.0 **** 0.06
15123 H 154.60101004980015 149.9290453330509 151.8966483995864 H 0.0 **** 0.06
15124 H 153.3126636710483 151.1459833914628 151.7272055396276 H 0.0 **** 0.06
15125 H 153.89938341919586 150.26689796809217 150.29507347986186 H 0.0 **** 0.06
15126 C 66.12645889040371 158.9799449539607 76.7141044415269 C 0.0 **** -0.24
15127 H 66.99246900626261 158.92276487088944 77.37280587515508 H 0.0 **** 0.06
15128 H 66.29067643189445 159.7570053215946 75.96590625905975 H 0.0 **** 0.06
15129 H 65.23998943441308 159.22157479222662 77.29969353476909 H 0.0 **** 0.06
15130 H 65.98419425025817 158.02069889012697 76.21638620415754 H 0.0 **** 0.06
15131 C 58.72004169067951 37.30357087976017 21.48695266885018 C 0.0 **** -0.24
15132 H 57.74431636039628 37.196841392958646 21.961350800268463 H 0.0 **** 0.06
15133 H 59.36861955156863 36.48644006910416 21.805143981411334 H 0.0 **** 0.06
15134 H 59.16451642913684 38.254995263202886 21.7801446628049 H 0.0 **** 0.06
15135 H 58.60254724436318 37.27432213412823 20.403842221332965 H 0.0 **** 0.06
15136 C 23.73274291134014 53.19672087291511 175.44439866481895 C 0.0 **** -0.24
15137 H 24.42946361117029 54.013919679287156 175.6318288258895 H 0.0 **** 0.06
15138 H 23.770094621922382 52.922943027379404 174.38938527558795 H 0.0 **** 0.06
15139 H 22.722087630228174 53.515000040558434 175.70200685149376 H 0.0 **** 0.06
15140 H 24.00956908770992 52.33633401771378 176.053270900566 H 0.0 **** 0.06
15141 C 101.29517614977954 46.99588674148917 66.80078769251222 C 0.0 **** -0.24
15142 H 100.58938719229687 46.915455922678944 67.6277759162343 H 0.0 **** 0.06
15143 H 100.74607400652658 47.102596990109305 65.86470304666022 H 0.0 **** 0.06
15144 H 101.9112938328874 46.097826303362666 66.76047485944274 H 0.0 **** 0.06
15145 H 101.93200983765132 47.86718051839924 66.95020880082981 H 0.0 **** 0.06
15146 C 58.41431462906273 27.859613423225383 150.32071507130266 C 0.0 **** -0.24
15147 H 59.16372275240276 28.647304855212056 150.40632688724176 H 0.0 **** 0.06
15148 H 58.62758782317772 27.075841034309107 151.0482383289382 H 0.0 **** 0.06
15149 H 58.441926270088516 27.44023506504709 149.31526737962096 H 0.0 **** 0.06
15150 H 57.426665641200344 28.276789506013458 150.51327737775304 H 0.0 **** 0.06
15151 C 112.15254576739162 64.48080239435214 123.24668497864349 C 0.0 **** -0.24
15152 H 112.28465232693475 63.51291661558925 122.76468432966391 H 0.0 **** 0.06
15153 H 111.26287736251939 64.96732243212858 122.84533838249578 H 0.0 **** 0.06
15154 H 113.02631121283517 65.10419644033944 123.05523392513109 H 0.0 **** 0.06
15155 H 112.03634216727735 64.33877408935122 124.32148327728328 H 0.0 **** 0.06
15156 C 68.49462797119271 125.67845295384623 136.2040089921522 C 0.0 **** -0.24
15157 H 68.76771435323239 126.4149444369668 136.95908699126346 H 0.0 **** 0.06
15158 H 67.44306572578328 125.79958045158787 135.94084993310173 H 0.0 **** 0.06
15159 H 68.6573821712245 124.67599881131622 136.5984800572963 H 0.0 **** 0.06
15160 H 69.11046576716377 125.82418023341279 135.3158327267945 H 0.0 **** 0.06
15161 C 5.367174232418506 176.98939103461854 12.489638773018946 C 0.0 **** -0.24
15162 H 4.6429678681003566 177.15297313908528 11.69229775739268 H 0.0 **** 0.06
15163 H 5.298933689496039 175.95768760345888 12.83555921811221 H 0.0 **** 0.06
15164 H 5.1551584994579684 177.66574672573336 13.318042661518312 H 0.0 **** 0.06
15165 H 6.372626546377489 177.18104265531198 12.112568460365516 H 0.0 **** 0.06
15166 C 87.18749094993831 7.6641858715789795 84.76174509371421 C 0.0 **** -0.24
15167 H 86.56602022079744 7.07319975917045 84.08947638576487 H 0.0 **** 0.06
15168 H 86.74711387831681 7.662918531571165 85.75853549218809 H 0.0 **** 0.06
15169 H 87.24978157424337 8.687583653327636 84.39322709203154 H 0.0 **** 0.06
15170 H 88.18752658075462 7.232068083091349 84.80483393479972 H 0.0 **** 0.06
15171 C 168.95397488307145 95.11357258976611 85.69665553458228 C 0.0 **** -0.24
15172 H 169.0634347243185 94.36523980911653 84.91120897857184 H 0.0 **** 0.06
15173 H 167.89435862959937 95.29761863623713 85.87657537940572 H 0.0 **** 0.06
15174 H 169.4373536280803 96.03963667259106 85.38591129983399 H 0.0 **** 0.06
15175 H 169.42049526677525 94.74977829532267 86.61199597370432 H 0.0 **** 0.06
15176 C 80.8016707413592 109.20506212736143 106.86273328240736 C 0.0 **** -0.24
15177 H 79.91187262875252 108.76459883468931 106.41257098360035 H 0.0 **** 0.06
15178 H 81.63466834781366 109.13415771992422 106.16318254164227 H 0.0 **** 0.06
15179 H 81.04909726382061 108.66795061538755 107.77789611120056 H 0.0 **** 0.06
15180 H 80.60951918959728 110.2520735370799 107.0965634890999 H 0.0 **** 0.06
15181 C 142.84573298704566 137.57188844241594 44.83208674257679 C 0.0 **** -0.24
15182 H 142.49625975430928 137.83479640102092 45.8308582691282 H 0.0 **** 0.06
15183 H 143.71931483640114 138.17357351031794 44.58383991852057 H 0.0 **** 0.06
15184 H 142.05384632416363 137.76379299718232 44.109011498838626 H 0.0 **** 0.06
15185 H 143.11188800649978 136.5152037607834 44.80715342610182 H 0.0 **** 0.06
15186 C 130.38382799158072 106.35857691353547 166.74163017153074 C 0.0 **** -0.24
15187 H 129.73107002866377 105.5075400714129 166.54778741606276 H 0.0 **** 0.06
15188 H 131.38052932171527 106.00114721105965 166.9989298661692 H 0.0 **** 0.06
15189 H 129.98214142113534 106.94322743364518 167.56907161650432 H 0.0 **** 0.06
15190 H 130.4406805702164 106.98314068968935 165.84992699019736 H 0.0 **** 0.06
15191 C 174.22638282336248 169.10333571015235 137.5327667597141 C 0.0 **** -0.24
15192 H 173.90442352033892 170.03459341003833 137.06712636448907 H 0.0 **** 0.06
15193 H 173.84852324663387 168.25883742410352 136.9557516084816 H 0.0 **** 0.06
15194 H 173.8372329247809 169.0523218941194 138.55018489039276 H 0.0 **** 0.06
15195 H 175.31547476020074 169.0675375954043 137.558995182844 H 0.0 **** 0.06
15196 C 52.30390917554527 38.857340027338694 64.73800409013273 C 0.0 **** -0.24
15197 H 52.86233807433507 39.511754515342545 64.06853450210396 H 0.0 **** 0.06
15198 H 52.52916386311381 39.11757093327583 65.77248748524225 H 0.0 **** 0.06
15199 H 52.590239289062254 37.821104344212415 64.55284091979465 H 0.0 **** 0.06
15200 H 51.23594735455731 38.9766271297305 64.55657694362871 H 0.0 **** 0.06
15201 C 21.311975943956654 11.182774630850773 101.41777976660796 C 0.0 **** -0.24
15202 H 21.16820388257284 10.763772376703258 102.4140133742319 H 0.0 **** 0.06
15203 H 21.977812315805068 10.537220947745979 100.84573690686886 H 0.0 **** 0.06
15204 H 21.75237582123266 12.175940847795623 101.50287080304304 H 0.0 **** 0.06
15205 H 20.349603886464024 11.25393445512713 100.91131557572317 H 0.0 **** 0.06
15206 C 26.742755083374874 78.90199441399957 99.36044679419717 C 0.0 **** -0.24
15207 H 27.554768409707094 79.61873088780496 99.22982937073729 H 0.0 **** 0.06
15208 H 26.88006487415018 78.36707888260847 100.30087600787019 H 0.0 **** 0.06
15209 H 26.749227520178295 78.19220434538497 98.53302135556976 H 0.0 **** 0.06
15210 H 25.790611791456854 79.43187686210001 99.37803700917473 H 0.0 **** 0.06
15211 C 69.19843181256374 4.91447541529611 78.85005677548554 C 0.0 **** -0.24
15212 H 70.26355148118992 5.060869474578183 79.03080124585284 H 0.0 **** 0.06
15213 H 68.71835650733347 4.569576044178682 79.76646270725075 H 0.0 **** 0.06
15214 H 69.0622492374473 4.170191203527182 78.06617095697709 H 0.0 **** 0.06
15215 H 68.75038280059431 5.857558784075785 78.53829322967988 H 0.0 **** 0.06
15216 C 193.89241499756974 40.2229951737188 50.25611596822459 C 0.0 **** -0.24
15217 H 194.7249504585434 40.899229912694864 50.44970047595719 H 0.0 **** 0.06
15218 H 193.80596223899664 39.509603043997686 51.07727145182626 H 0.0 **** 0.06
15219 H 194.07084913874706 39.68408612671908 49.32520834937176 H 0.0 **** 0.06
15220 H 192.96980986120064 40.79629871576225 50.173930436817614 H 0.0 **** 0.06
15221 C 15.305969752226176 80.20809085333329 163.7057235394357 C 0.0 **** -0.24
15222 H 14.407508432743725 80.40719469241748 163.12157321538638 H 0.0 **** 0.06
15223 H 15.478484099174196 79.13313189296329 163.752741654261 H 0.0 **** 0.06
15224 H 15.178431578223751 80.60131940263093 164.71397598342347 H 0.0 **** 0.06
15225 H 16.16054611047946 80.6928703874749 163.23232860716692 H 0.0 **** 0.06
15226 C 10.494258992843882 73.30880249121147 95.07827284326626 C 0.0 **** -0.24
15227 H 9.998375884479664 73.82770037048863 94.25740462301175 H 0.0 **** 0.06
15228 H 10.011701130777283 72.34567634083062 95.24420538528787 H 0.0 **** 0.06
15229 H 10.423923380533921 73.91236917222325 95.98407628801178 H 0.0 **** 0.06
15230 H 11.543162030142696 73.15286829053773 94.82677608697975 H 0.0 **** 0.06
15231 C 30.41973496618462 155.58635619555233 17.49399619345253 C 0.0 **** -0.24
15232 H 29.855096574845106 156.45800347924558 17.826246401987987 H 0.0 **** 0.06
15233 H 29.72717494172531 154.80093663547515 17.188302801447577 H 0.0 **** 0.06
15234 H 31.042801144001658 155.2240627074794 18.311090207297525 H 0.0 **** 0.06
15235 H 31.05063476145591 155.86322785440592 16.64939556954917 H 0.0 **** 0.06
15236 C 147.80991529650495 164.9865556493756 75.61073710689625 C 0.0 **** -0.24
15237 H 148.2060870427302 165.7395108659552 76.29178267315393 H 0.0 **** 0.06
15238 H 148.62760252076143 164.37502363953183 75.22914453804692 H 0.0 **** 0.06
15239 H 147.30406933814774 165.47923604490296 74.78001598053304 H 0.0 **** 0.06
15240 H 147.09922894143017 164.35394651464918 76.14415467924111 H 0.0 **** 0.06
15241 C 108.67338198808855 194.66502440389138 0.8909162608715917 C 0.0 **** -0.24
15242 H 108.78826347293969 194.81430161190994 1.9646230396584414 H 0.0 **** 0.06
15243 H 108.68915200691484 193.59868670879263 0.668745429731004 H 0.0 **** 0.06
15244 H 109.49204515527296 195.1573959110163 0.3664531150530621 H 0.0 **** 0.06
15245 H 107.72430487185605 195.09138097660573 0.564921785828524 H 0.0 **** 0.06
15246 C 56.9062236005643 2.7607038962553645 193.40029981706493 C 0.0 **** -0.24
15247 H 55.81863566328981 2.763356695493826 193.32608304459373 H 0.0 **** 0.06
15248 H 57.234229664281145 3.636415068401817 193.9611462015847 H 0.0 **** 0.06
15249 H 57.339086653547554 2.787251124935608 192.40004559200344 H 0.0 **** 0.06
15250 H 57.233138971061294 1.856625166938528 193.9144424862505 H 0.0 **** 0.06
15251 C 156.7816609286351 101.55515992679076 75.06189342985988 C 0.0 **** -0.24
15252 H 156.96985815054202 101.99367701959821 74.08170556237587 H 0.0 **** 0.06
15253 H 157.35567852005167 102.09321719679716 75.81612473137216 H 0.0 **** 0.06
15254 H 157.0825464227102 100.50773122605884 75.05442952583343 H 0.0 **** 0.06
15255 H 155.71865425158535 101.62682618122193 75.29300475399157 H 0.0 **** 0.06
15256 C 97.1792629623344 60.75999384038721 158.80178990084272 C 0.0 **** -0.24
15257 H 96.26589010100861 60.86864817540956 159.38647351602992 H 0.0 **** 0.06
15258 H 96.9771340819135 61.017017839878264 157.76126585294037 H 0.0 **** 0.06
15259 H 97.52765312792269 59.728667556859534 158.86080752703458 H 0.0 **** 0.06
15260 H 97.94569552300936 61.425538567662386 159.19788586153493 H 0.0 **** 0.06
15261 C 81.68061065732141 58.47288251329067 56.267214876082164 C 0.0 **** -0.24
15262 H 81.20149569562548 59.077409081191746 57.03758567807756 H 0.0 **** 0.06
15263 H 81.00450829142125 58.36526544533743 55.41814722714378 H 0.0 **** 0.06
15264 H 81.91560107862466 57.48811687026951 56.67271683778944 H 0.0 **** 0.06
15265 H 82.5991040128938 58.96066096896898 55.941820035990474 H 0.0 **** 0.06
15266 C 52.48669624072255 36.1130105238162 1.2958720044261085 C 0.0 **** -0.24
15267 H 53.57271748995527 36.185559957908765 1.2504288599544182 H 0.0 **** 0.06
15268 H 52.15224353959724 35.28421616922594 0.6707663962294248 H 0.0 **** 0.06
15269 H 52.045106990535714 37.041784202147056 0.9355151570990188 H 0.0 **** 0.06
15270 H 52.17715963934074 35.938702549177606 2.3259785463504556 H 0.0 **** 0.06
15271 C 14.188560127703568 54.20028910645837 6.4519168767129145 C 0.0 **** -0.24
15272 H 15.160164100736097 53.802345008708016 6.745957541927183 H 0.0 **** 0.06
15273 H 13.404649299941127 53.5067897885267 6.758896072884248 H 0.0 **** 0.06
15274 H 14.159847139288644 54.324947310530945 5.369359449622451 H 0.0 **** 0.06
15275 H 14.02991614589223 55.16478057959549 6.934245568109915 H 0.0 **** 0.06
15276 C 78.64673671004584 125.56798023131125 76.01142848609044 C 0.0 **** -0.24
15277 H 79.65418467175164 125.9331757184683 75.81122721391665 H 0.0 **** 0.06
15278 H 78.0083181086635 126.40493891412342 76.29895690600802 H 0.0 **** 0.06
15279 H 78.6783030682526 124.83965015818467 76.8210046254427 H 0.0 **** 0.06
15280 H 78.24600707860571 125.09660003247598 75.11462297201018 H 0.0 **** 0.06
15281 C 162.6440082727674 58.542301823013304 88.73059995488148 C 0.0 **** -0.24
15282 H 162.90598382552332 57.60526230656865 88.24045363886091 H 0.0 **** 0.06
15283 H 163.21795472267382 58.64403110040104 89.65206798233663 H 0.0 **** 0.06
15284 H 161.57897677727513 58.54554855315541 88.96267764875756 H 0.0 **** 0.06
15285 H 162.87320344533688 59.37526493688199 88.06515519434686 H 0.0 **** 0.06
15286 C 184.73646281730038 97.36690641299424 22.612702468766543 C 0.0 **** -0.24
15287 H 183.94443324853796 96.99237353635738 23.261488240532117 H 0.0 **** 0.06
15288 H 185.5914386845066 97.66629513166018 23.218450214926634 H 0.0 **** 0.06
15289 H 184.36945462226086 98.22609792525162 22.050043031462337 H 0.0 **** 0.06
15290 H 185.03928175783017 96.58128506756051 21.918833949622154 H 0.0 **** 0.06
15291 C 110.95459227986282 8.713906502990433 61.48702910243884 C 0.0 **** -0.24
15292 H 110.05575991878194 8.977089884919458 62.04393354604622 H 0.0 **** 0.06
15293 H 110.7161365197617 8.640005853772472 60.425735910604146 H 0.0 **** 0.06
15294 H 111.33456906675198 7.755968483053586 61.842490886234316 H 0.0 **** 0.06
15295 H 111.71290807837778 9.483577720024549 61.637355718512254 H 0.0 **** 0.06
15296 C 118.05146464609913 20.419367602070622 175.57180111596097 C 0.0 **** -0.24
15297 H 118.22643607010306 19.363928077360356 175.7814176743225 H 0.0 **** 0.06
15298 H 117.43028829100365 20.847099772096925 176.35879527762654 H 0.0 **** 0.06
15299 H 117.5441223611933 20.519239373701765 174.61236580659758 H 0.0 **** 0.06
15300 H 119.00541697148995 20.944071835837065 175.53445033655817 H 0.0 **** 0.06
15301 C 162.04484472697214 106.88953529748574 179.33950346831753 C 0.0 **** -0.24
15302 H 162.79765671693235 106.67075779816957 180.09654982581037 H 0.0 **** 0.06
15303 H 161.39366504873448 106.02302496908277 179.2153398380342 H 0.0 **** 0.06
15304 H 162.53573207193085 107.11454904574816 178.39347752956428 H 0.0 **** 0.06
15305 H 161.4509743771962 107.74745198458083 179.6545489330517 H 0.0 **** 0.06
15306 C 115.60425437634714 34.054539023624415 71.2821743312632 C 0.0 **** -0.24
15307 H 114.69438272816828 33.49443899516595 71.49821189166731 H 0.0 **** 0.06
15308 H 115.72875370085677 34.844661952436724 72.02265077102456 H 0.0 **** 0.06
15309 H 115.5326744352785 34.494893457080565 70.28827496980522 H 0.0 **** 0.06
15310 H 116.46174402506801 33.38235437094002 71.32076174289806 H 0.0 **** 0.06
15311 C 87.23277278056005 130.06678107269508 105.8147778304373 C 0.0 **** -0.24
15312 H 86.5395385782146 129.61383882343972 106.52362290787445 H 0.0 **** 0.06
15313 H 88.21781583452344 129.61361150779385 105.93008276671233 H 0.0 **** 0.06
15314 H 87.30028268540735 131.1374984793349 106.00560056274679 H 0.0 **** 0.06
15315 H 86.87317036642955 129.90136464237202 104.79929312548842 H 0.0 **** 0.06
15316 C 34.69784378053944 24.94020049376512 61.009875473741246 C 0.0 **** -0.24
15317 H 34.5563989070061 25.857337248472717 60.43757379136834 H 0.0 **** 0.06
15318 H 34.014540918061016 24.17383649737792 60.642816726668144 H 0.0 **** 0.06
15319 H 34.494527502523 25.135247283600023 62.06318736453912 H 0.0 **** 0.06
15320 H 35.725466715993036 24.595396982676988 60.89680330847271 H 0.0 **** 0.06
15321 C 173.879361504618 138.84119880784363 90.24853563137685 C 0.0 **** -0.24
15322 H 173.5196847935385 139.60944982084104 89.56353727959211 H 0.0 **** 0.06
15323 H 173.2668542595428 138.84323878018708 91.15011058306598 H 0.0 **** 0.06
15324 H 174.91615418732636 139.04838805534672 90.51311685918796 H 0.0 **** 0.06
15325 H 173.81520231998178 137.86579121506793 89.7666691547384 H 0.0 **** 0.06
15326 C 54.27683286936593 72.76558524830068 45.10207025793943 C 0.0 **** -0.24
15327 H 53.52701892697965 72.79206952807196 45.89250767397192 H 0.0 **** 0.06
15328 H 55.19918319226994 72.3330712102278 45.490684702540705 H 0.0 **** 0.06
15329 H 54.47017498059148 73.78009481995132 44.75182053991887 H 0.0 **** 0.06
15330 H 53.910301733298695 72.15934302066638 44.27402137176131 H 0.0 **** 0.06
15331 C 132.04149934213737 121.8788920557812 0.9662336745115283 C 0.0 **** -0.24
15332 H 132.3162472453149 122.78629588952185 0.4284218536036519 H 0.0 **** 0.06
15333 H 131.55964417296985 121.18186328519869 0.2809183001288318 H 0.0 **** 0.06
15334 H 131.35346176315372 122.13048506769411 1.7732336281488585 H 0.0 **** 0.06
15335 H 132.93720286972635 121.41793893653266 1.3836484732563008 H 0.0 **** 0.06
15336 C 8.163829715855911 181.85794386515866 97.5305262058755 C 0.0 **** -0.24
15337 H 7.7868297144532335 181.1740876813073 98.2908033887251 H 0.0 **** 0.06
15338 H 7.3247632419765125 182.3331999384705 97.02148316301103 H 0.0 **** 0.06
15339 H 8.761146256313026 181.30267766145434 96.80728414564908 H 0.0 **** 0.06
15340 H 8.782579650680987 182.62181017940256 98.00253412611696 H 0.0 **** 0.06
15341 C 18.334506510514245 152.89251430657072 197.5784888727771 C 0.0 **** -0.24
15342 H 19.288529039917236 152.7071664250966 197.08409340691773 H 0.0 **** 0.06
15343 H 17.519718750512126 152.5803523274044 196.92502464852203 H 0.0 **** 0.06
15344 H 18.238599106776803 153.956269293903 197.79614865356575 H 0.0 **** 0.06
15345 H 18.291193026712833 152.32528871768557 198.50849250984862 H 0.0 **** 0.06
15346 C 13.602808384657564 169.85421155237617 119.80316831982961 C 0.0 **** -0.24
15347 H 12.65545418305053 170.38891255983845 119.87065556408845 H 0.0 **** 0.06
15348 H 13.422463614138834 168.7829243548229 119.89172443040681 H 0.0 **** 0.06
15349 H 14.261593135245043 170.18014051448066 120.60833392726215 H 0.0 **** 0.06
15350 H 14.072506111812345 170.06691512518748 118.8424051152194 H 0.0 **** 0.06
15351 C 184.30403391408942 188.37028235556085 109.05093126657971 C 0.0 **** -0.24
15352 H 183.2836457063252 188.43942533192347 108.67400443626622 H 0.0 **** 0.06
15353 H 184.28725521617852 188.34100900553892 110.14096853884507 H 0.0 **** 0.06
15354 H 184.87344483211933 189.23771069331872 108.7188003538663 H 0.0 **** 0.06
15355 H 184.770187496047 187.4614296712772 108.67007522516036 H 0.0 **** 0.06
15356 C 177.2480642065209 153.70644903533807 104.12817554837068 C 0.0 **** -0.24
15357 H 178.01469375379514 153.7448946037393 103.35357127403915 H 0.0 **** 0.06
15358 H 177.6875155096583 153.33615856203707 105.05449093958754 H 0.0 **** 0.06
15359 H 176.44663578680593 153.03820858336076 103.81289968258386 H 0.0 **** 0.06
15360 H 176.8462525761924 154.70613454547043 104.29040981163985 H 0.0 **** 0.06
15361 C 166.82315311376087 74.54295021489685 21.96529018561563 C 0.0 **** -0.24
15362 H 167.44233717849576 74.09777605406285 21.18595793254066 H 0.0 **** 0.06
15363 H 166.6681501463583 75.59993975758162 21.745254045519857 H 0.0 **** 0.06
15364 H 167.32372644197167 74.44158006433271 22.928418487479135 H 0.0 **** 0.06
15365 H 165.8609964470839 74.03287357088384 22.0000756337206 H 0.0 **** 0.06
15366 C 23.585513330411345 143.12001951734575 180.98223544409456 C 0.0 **** -0.24
15367 H 24.076554074129035 144.08602176604805 181.09773139829494 H 0.0 **** 0.06
15368 H 23.87663450207323 142.67620357187735 180.02943400429177 H 0.0 **** 0.06
15369 H 22.50439558422279 143.257177446814 181.00529633820287 H 0.0 **** 0.06
15370 H 23.8852487427028 142.46103923509617 181.79760245975694 H 0.0 **** 0.06
15371 C 39.80155570432318 181.08055488268707 23.550373458713352 C 0.0 **** -0.24
15372 H 39.5348732109568 180.97414518197593 24.601424877585742 H 0.0 **** 0.06
15373 H 40.87284557512737 180.92219972115362 23.429260607093084 H 0.0 **** 0.06
15374 H 39.54078550853775 182.0830786265309 23.20933862539482 H 0.0 **** 0.06
15375 H 39.255731964074116 180.3437678379949 22.961139231131682 H 0.0 **** 0.06
15376 C 80.43487497575723 139.56309160797727 40.11333158609476 C 0.0 **** -0.24
15377 H 80.49904164202371 140.45318745576233 40.73994927117259 H 0.0 **** 0.06
15378 H 80.2017050023745 139.855696719565 39.088851363873204 H 0.0 **** 0.06
15379 H 79.65024503494143 138.90915462906355 40.492247063413586 H 0.0 **** 0.06
15380 H 81.38951939841218 139.0365582971736 40.13223659514834 H 0.0 **** 0.06
15381 C 112.8944978226769 155.4475858972129 82.9417141993311 C 0.0 **** -0.24
15382 H 112.48670313091583 155.48826355680248 81.93238795415397 H 0.0 **** 0.06
15383 H 113.89445269764175 155.0137736976344 82.91302755320496 H 0.0 **** 0.06
15384 H 112.24977424761704 154.8320842505392 83.57009700031034 H 0.0 **** 0.06
15385 H 112.94788455542633 156.4556367044318 83.35333917029416 H 0.0 **** 0.06
15386 C 88.48165103733578 155.42847447777353 95.67681748271298 C 0.0 **** -0.24
15387 H 88.06778469257574 156.07648347444325 96.44974030048718 H 0.0 **** 0.06
15388 H 88.38741797582347 155.91591230150345 94.70566547963631 H 0.0 **** 0.06
15389 H 87.93657769014871 154.48449840511984 95.66370609390108 H 0.0 **** 0.06
15390 H 89.53358318387822 155.23879793979418 95.88766631108436 H 0.0 **** 0.06
15391 C 88.34566004537419 25.9513514199473 187.66131265407313 C 0.0 **** -0.24
15392 H 87.80504921907573 25.01145146590673 187.7743157538368 H 0.0 **** 0.06
15393 H 89.37802559343709 25.74423986021496 187.38163277773282 H 0.0 **** 0.06
15394 H 88.32542300605746 26.49790187121569 188.60438251233253 H 0.0 **** 0.06
15395 H 87.8712483712174 26.55102533746613 186.88484602438197 H 0.0 **** 0.06
15396 C 131.94658471428352 127.14070154963818 106.76943318169171 C 0.0 **** -0.24
15397 H 132.80713659102503 126.83543713390466 106.17277848967646 H 0.0 **** 0.06
15398 H 132.18264873979672 128.0627195644596 107.3011504454499 H 0.0 **** 0.06
15399 H 131.7055999948543 126.35774170509666 107.48763503596379 H 0.0 **** 0.06
15400 H 131.0915320460481 127.30859919713953 106.11375946645941 H 0.0 **** 0.06
15401 C 41.7882661956302 14.001249401639996 164.09387901921966 C 0.0 **** -0.24
15402 H 42.60767661269696 14.259087053905773 163.4233553558546 H 0.0 **** 0.06
15403 H 41.673741323680844 14.782794070398666 164.84510579616193 H 0.0 **** 0.06
15404 H 42.00572554601854 13.052776337697253 164.58585562247163 H 0.0 **** 0.06
15405 H 40.86596163823609 13.909408287707947 163.52155990918993 H 0.0 **** 0.06
15406 C 43.54148257024684 74.88927045932657 147.91077210113582 C 0.0 **** -0.24
15407 H 42.846430957049165 75.71998868557613 147.78910795887128 H 0.0 **** 0.06
15408 H 44.467273139408576 75.1101890941071 147.37984700838564 H 0.0 **** 0.06
15409 H 43.09597674542749 73.98158170282471 147.50418956995787 H 0.0 **** 0.06
15410 H 43.75483889904575 74.74696756537357 148.97049501793975 H 0.0 **** 0.06
15411 C 162.3167685622787 145.26397110484524 194.36198618493495 C 0.0 **** -0.24
15412 H 161.57505443436673 144.74029354433037 193.75835992535985 H 0.0 **** 0.06
15413 H 163.22313064423912 145.4120678122678 193.77587032675748 H 0.0 **** 0.06
15414 H 162.54814027591388 144.67013480641833 195.2466422073624 H 0.0 **** 0.06
15415 H 161.91840729030554 146.23152498821358 194.6672851551038 H 0.0 **** 0.06
15416 C 86.53711442726899 175.25043715983293 74.97346952467032 C 0.0 **** -0.24
15417 H 86.179808028852 174.6580458822411 74.13120567522168 H 0.0 **** 0.06
15418 H 87.24772396303979 175.99609741163394 74.6173086720874 H 0.0 **** 0.06
15419 H 87.02632607914018 174.59654785380252 75.69615925114951 H 0.0 **** 0.06
15420 H 85.69251372825613 175.7497734373503 75.44922223724505 H 0.0 **** 0.06
15421 C 35.905990474336065 43.19414690825022 17.685290849271155 C 0.0 **** -0.24
15422 H 35.782296243093796 42.44218335557781 16.90538171705259 H 0.0 **** 0.06
15423 H 35.43710540100045 42.84306008200804 18.605281904099456 H 0.0 **** 0.06
15424 H 35.43516568774341 44.12446686069774 17.37024410273716 H 0.0 **** 0.06
15425 H 36.96814350088391 43.365053457752936 17.85992640398476 H 0.0 **** 0.06
15426 C 21.90524477488239 52.93229477456401 66.4919377616467 C 0.0 **** -0.24
15427 H 21.011879321106335 52.36682138812694 66.75574390939519 H 0.0 **** 0.06
15428 H 22.791188095614714 52.334035431503736 66.7076827507458 H 0.0 **** 0.06
15429 H 21.93719088967096 53.85317062158833 67.07378464110452 H 0.0 **** 0.06
15430 H 21.88092060064787 53.17495900741875 65.42957902441381 H 0.0 **** 0.06
15431 C 157.18421527291514 136.66148136942567 55.6972606794223 C 0.0 **** -0.24
15432 H 156.17815820423255 136.45243389958202 55.331688467211336 H 0.0 **** 0.06
15433 H 157.76593602548493 135.73956920635248 55.70629497170091 H 0.0 **** 0.06
15434 H 157.1266187334301 137.0664892878244 56.7071051655158 H 0.0 **** 0.06
15435 H 157.66466342041838 137.38793320584614 55.041599183773826 H 0.0 **** 0.06
15436 C 184.46182677800888 120.35457118068703 18.20995856274206 C 0.0 **** -0.24
15437 H 184.2969204234683 120.03795825090978 17.179427700514466 H 0.0 **** 0.06
15438 H 183.50307752874366 120.44317082535255 18.720375697007185 H 0.0 **** 0.06
15439 H 184.96765832750836 121.32050722572583 18.215315855259448 H 0.0 **** 0.06
15440 H 185.0806031501181 119.61706025484207 18.721261917749487 H 0.0 **** 0.06
15441 C 184.76989192884497 42.58907959845766 47.6197723986586 C 0.0 **** -0.24
15442 H 185.15236477187864 43.38079129588627 48.26461254344616 H 0.0 **** 0.06
15443 H 185.23714296922174 41.642140646183634 47.890692636039375 H 0.0 **** 0.06
15444 H 185.001647808829 42.82554612576422 46.58122173628209 H 0.0 **** 0.06
15445 H 183.6899151406376 42.511102632498705 47.74224850870348 H 0.0 **** 0.06
15446 C 131.51894535022163 56.741341806919706 199.0121307747548 C 0.0 **** -0.24
15447 H 131.54421516523587 57.299285094245334 199.9470384500304 H 0.0 **** 0.06
15448 H 131.13510348089 55.73813117655207 199.19712409989353 H 0.0 **** 0.06
15449 H 132.5268645020314 56.67494004843395 198.60107299578556 H 0.0 **** 0.06
15450 H 130.87034802935105 57.25336972732315 198.30098338019715 H 0.0 **** 0.06
15451 C 77.63817025244721 162.82409402594388 18.0366919839891 C 0.0 **** -0.24
15452 H 77.77314431925636 162.28236038336783 17.100724924724318 H 0.0 **** 0.06
15453 H 78.10224457788978 163.8072396953266 17.9565464836422 H 0.0 **** 0.06
15454 H 78.10459186203816 162.2678846180254 18.849950038608995 H 0.0 **** 0.06
15455 H 76.57333825969616 162.93996530777952 18.238883371443677 H 0.0 **** 0.06
15456 C 133.5059067877213 59.227857695022735 124.4820535346374 C 0.0 **** -0.24
15457 H 132.77855903034333 59.334800642229865 125.28632843261377 H 0.0 **** 0.06
15458 H 133.02794071288145 59.45548013385279 123.528393650727 H 0.0 **** 0.06
15459 H 133.88071542932204 58.20381720245845 124.46579738934247 H 0.0 **** 0.06
15460 H 134.33472622698446 59.9158869422408 124.64743420221401 H 0.0 **** 0.06
15461 C 47.88979931401559 72.66018262875116 170.91281907853758 C 0.0 **** -0.24
15462 H 48.47870961255701 72.16763143299693 170.13921151808154 H 0.0 **** 0.06
15463 H 46.92754519650252 72.15847324255299 171.01125368054764 H 0.0 **** 0.06
15464 H 47.73079336523321 73.70312784488704 170.6393450206898 H 0.0 **** 0.06
15465 H 48.42385969473915 72.61136474458004 171.8624937787203 H 0.0 **** 0.06
15466 C 193.74441857142904 31.768278315340638 54.16563589925727 C 0.0 **** -0.24
15467 H 193.9608825466556 32.41227055171551 55.01731659305483 H 0.0 **** 0.06
15468 H 193.41460833159582 32.37659755128469 53.32379293125484 H 0.0 **** 0.06
15469 H 192.9580554443987 31.06247055998358 54.434773681715626 H 0.0 **** 0.06
15470 H 194.6449798508129 31.21993183412252 53.88759773578863 H 0.0 **** 0.06
15471 C 125.32669404699075 193.37506648498234 19.605752275026788 C 0.0 **** -0.24
15472 H 125.41705614219927 193.10756198419435 18.553197428383342 H 0.0 **** 0.06
15473 H 124.27324109580567 193.40278034151567 19.884076729265217 H 0.0 **** 0.06
15474 H 125.77307435839143 194.35583180677042 19.77026271860275 H 0.0 **** 0.06
15475 H 125.84475342383081 192.6333233027136 20.214704033225118 H 0.0 **** 0.06
15476 C 58.61977995527744 163.81545131954616 49.97813298229079 C 0.0 **** -0.24
15477 H 58.22133466947898 162.95057672647087 50.50885040413418 H 0.0 **** 0.06
15478 H 58.98486387718317 163.50430143649297 48.99921614795154 H 0.0 **** 0.06
15479 H 59.438830158665326 164.2474865935731 50.55183842671305 H 0.0 **** 0.06
15480 H 57.83248097464262 164.55882176654526 49.852783961458655 H 0.0 **** 0.06
15481 C 23.101537335922274 123.30444389605117 116.28254080943856 C 0.0 **** -0.24
15482 H 22.931059389800936 124.2905639367099 116.71394457260843 H 0.0 **** 0.06
15483 H 23.709776018561683 122.70933350923934 116.96437072536301 H 0.0 **** 0.06
15484 H 23.621881900264896 123.40936175639675 115.32997402337193 H 0.0 **** 0.06
15485 H 22.144878800063623 122.80817962419258 116.12098311331607 H 0.0 **** 0.06
15486 C 0.4017523452265266 2.029911296802993 87.13660684276368 C 0.0 **** -0.24
15487 H 0.4605920857594583 2.5272712507791653 86.16839268926958 H 0.0 **** 0.06
15488 H 0.6896943200025589 2.7288532450421386 87.92149488639228 H 0.0 **** 0.06
15489 H 1.075536267287589 1.172820012702232 87.1460117290701 H 0.0 **** 0.06
15490 H -0.6196038455797179 1.6902584123184425 87.30825220265751 H 0.0 **** 0.06
15491 C 102.55483921740512 189.0471885303263 18.69909223910099 C 0.0 **** -0.24
15492 H 102.35915159501846 189.20833425240204 17.639199280859543 H 0.0 **** 0.06
15493 H 102.96176214132879 189.95924297857482 19.135786755195994 H 0.0 **** 0.06
15494 H 103.27352455043984 188.2361601403523 18.817481550981398 H 0.0 **** 0.06
15495 H 101.62490583716806 188.78566964058828 19.20465872860362 H 0.0 **** 0.06
15496 C 101.17253161053159 141.69045732432562 30.453927009516917 C 0.0 **** -0.24
15497 H 102.01240512367625 141.00144532448815 30.37423012630188 H 0.0 **** 0.06
15498 H 101.42217695750219 142.6273386484229 29.95463020904404 H 0.0 **** 0.06
15499 H 100.96045834954293 141.88428593008678 31.505631862247128 H 0.0 **** 0.06
15500 H 100.29465728058932 141.24971793302677 29.98216317179981 H 0.0 **** 0.06
15501 C 151.8033528948703 148.9091432760845 184.73773280123237 C 0.0 **** -0.24
15502 H 151.96032376195254 148.42992595292594 183.77124348797383 H 0.0 **** 0.06
15503 H 152.48432974057403 148.477467849969 185.47146405422978 H 0.0 **** 0.06
15504 H 150.77368313694572 148.75132257300257 185.05797722129563 H 0.0 **** 0.06
15505 H 151.99636654036857 149.978839852784 184.64772346113136 H 0.0 **** 0.06
15506 C 80.41267479175684 149.01848198633647 16.280464546982046 C 0.0 **** -0.24
15507 H 80.5092079972342 149.04607860923346 17.366230390839917 H 0.0 **** 0.06
15508 H 79.3575310233935 149.03059006981033 16.008974796098812 H 0.0 **** 0.06
15509 H 80.8771476705534 148.10978712761863 15.8982783770104 H 0.0 **** 0.06
15510 H 80.90988348624342 149.8889735332477 15.850680069052629 H 0.0 **** 0.06
15511 C 181.51697196036054 129.98848680735853 168.04645563122412 C 0.0 **** -0.24
15512 H 180.55793071374654 130.46119560921636 167.83500125203196 H 0.0 **** 0.06
15513 H 181.6802741712093 129.16833694601746 167.3467962204493 H 0.0 **** 0.06
15514 H 181.5150518418402 129.6015379056762 169.06580030206845 H 0.0 **** 0.06
15515 H 182.31555504970618 130.72259493934985 167.93848347401791 H 0.0 **** 0.06
15516 C 118.01541973703738 101.96492710007286 184.40742721921208 C 0.0 **** -0.24
15517 H 117.60833647607583 102.07064065131269 183.40121771168896 H 0.0 **** 0.06
15518 H 118.82301237421873 102.68413030770208 184.54911205179667 H 0.0 **** 0.06
15519 H 118.4012581349663 100.95397429357149 184.5373611604022 H 0.0 **** 0.06
15520 H 117.22927991590493 102.15112565370595 185.1382855743654 H 0.0 **** 0.06
15521 C 42.53175771817274 80.26400550282148 63.79970938562991 C 0.0 **** -0.24
15522 H 41.80010563423937 80.87806598943368 64.32537243574734 H 0.0 **** 0.06
15523 H 42.55432519160314 79.26869201104921 64.24188176572096 H 0.0 **** 0.06
15524 H 43.51692410738809 80.72235752344062 63.88420959934126 H 0.0 **** 0.06
15525 H 42.25441471859352 80.18957358996019 62.7488890381959 H 0.0 **** 0.06
15526 C 55.419570403164585 142.60877469395112 175.93971855084902 C 0.0 **** -0.24
15527 H 56.45425036069244 142.46485532531747 176.2514464621247 H 0.0 **** 0.06
15528 H 55.398991578293135 143.10548681558268 174.96984213803262 H 0.0 **** 0.06
15529 H 54.901295785287516 143.22482126762964 176.67492650357923 H 0.0 **** 0.06
15530 H 54.92579872573725 141.6397686152925 175.86352509349155 H 0.0 **** 0.06
15531 C 84.2865095149204 192.13150391947957 76.77672674771541 C 0.0 **** -0.24
15532 H 84.46586661755859 191.25462147867387 77.39979570305788 H 0.0 **** 0.06
15533 H 84.93822400389453 192.09505554157175 75.90248623636958 H 0.0 **** 0.06
15534 H 84.49799538850928 193.03435816302496 77.35000995144077 H 0.0 **** 0.06
15535 H 83.24599466255148 192.14089559752185 76.4538083405853 H 0.0 **** 0.06
15536 C 136.20279511168928 18.74637501201022 102.21987747456936 C 0.0 **** -0.24
15537 H 135.34974543795892 19.348808180798358 101.90709285022774 H 0.0 **** 0.06
15538 H 137.11142004805106 19.345306837701685 102.15790105346886 H 0.0 **** 0.06
15539 H 136.2942332701448 17.87886815017083 101.56629152750025 H 0.0 **** 0.06
15540 H 136.05576691310603 18.41402660535357 103.24657503773568 H 0.0 **** 0.06
15541 C 49.13370570989824 36.068733200600605 47.238953373962374 C 0.0 **** -0.24
15542 H 49.790410946030704 35.28228385619164 47.61148841051289 H 0.0 **** 0.06
15543 H 49.67383779712901 36.68164069860842 46.516424178270256 H 0.0 **** 0.06
15544 H 48.804272322738996 36.69098389028409 48.07038850749126 H 0.0 **** 0.06
15545 H 48.2650308341976 35.61814263597813 46.75659372264914 H 0.0 **** 0.06
15546 C 67.4624178393897 99.4358367067768 144.46888287686687 C 0.0 **** -0.24
15547 H 67.40376886042961 100.50763522074689 144.27911215397185 H 0.0 **** 0.06
15548 H 66.47277522237124 98.99224472192645 144.35411201549346 H 0.0 **** 0.06
15549 H 67.82154779541739 99.26603925560482 145.48456797133088 H 0.0 **** 0.06
15550 H 68.15071031478817 98.97761219603655 143.75883960808127 H 0.0 **** 0.06
15551 C 84.64021281042815 91.18123629679246 179.10264319205294 C 0.0 **** -0.24
15552 H 85.17902316972774 90.66898544623245 179.8991098410583 H 0.0 **** 0.06
15553 H 83.58560258942035 91.26079024081366 179.3703467208805 H 0.0 **** 0.06
15554 H 84.73852103021932 90.61630189396237 178.17597643193156 H 0.0 **** 0.06
15555 H 85.05657776164685 92.17890847283002 178.96599355488658 H 0.0 **** 0.06
15556 C 5.225375186128645 33.170484411151534 34.42776763601144 C 0.0 **** -0.24
15557 H 5.931587322952083 32.703753301790954 33.74203434702579 H 0.0 **** 0.06
15558 H 5.639584152610041 33.16485332691255 35.4361876448187 H 0.0 **** 0.06
15559 H 4.286379586188048 32.616065406947854 34.41688014833679 H 0.0 **** 0.06
15560 H 5.043229172120931 34.19954897383262 34.116485355455964 H 0.0 **** 0.06
15561 C 50.40408805449195 125.98124316096835 111.32061278187774 C 0.0 **** -0.24
15562 H 49.662389582620506 125.18883314497458 111.421173343661 H 0.0 **** 0.06
15563 H 51.13579251528989 125.70052908337607 110.56269004002232 H 0.0 **** 0.06
15564 H 50.90920117255945 126.12854225042577 112.27555331012493 H 0.0 **** 0.06
15565 H 49.90967517102837 126.90590828635618 111.02342936770319 H 0.0 **** 0.06
15566 C 32.7383187017694 27.743120158506144 194.15275220544706 C 0.0 **** -0.24
15567 H 33.76354274456787 27.697930107889334 193.78549044364195 H 0.0 **** 0.06
15568 H 32.478799369352714 26.793632284706092 194.62130762676767 H 0.0 **** 0.06
15569 H 32.06305537124865 27.933710642709315 193.31854756251371 H 0.0 **** 0.06
15570 H 32.6484653442526 28.54620558661304 194.88403521837162 H 0.0 **** 0.06
15571 C 94.51243056349784 79.07791088525175 80.5030868246732 C 0.0 **** -0.24
15572 H 93.42725858702008 79.18081468235874 80.51052156604703 H 0.0 **** 0.06
15573 H 94.89164640044643 79.29793083498285 79.50506214731413 H 0.0 **** 0.06
15574 H 94.78244331581436 78.05900661009485 80.77920067238662 H 0.0 **** 0.06
15575 H 94.94757109926448 79.77592766755666 81.21961456930285 H 0.0 **** 0.06
15576 C 39.756822379796176 182.88924562958772 180.28852428935434 C 0.0 **** -0.24
15577 H 40.38835365825591 182.01896865831895 180.11432645189745 H 0.0 **** 0.06
15578 H 39.58362458554751 183.40713916032567 179.3449759303892 H 0.0 **** 0.06
15579 H 40.25062068057565 183.56331466366 180.98830272094705 H 0.0 **** 0.06
15580 H 38.80298239166919 182.56766002498006 180.70622352279153 H 0.0 **** 0.06
15581 C 125.72601235504243 58.202532894743825 187.14695492311023 C 0.0 **** -0.24
15582 H 126.69502329939996 58.694788602175066 187.06399232763636 H 0.0 **** 0.06
15583 H 125.32489407230486 58.01885681911435 186.15097556964815 H 0.0 **** 0.06
15584 H 125.04148388358635 58.842181444656944 187.70310433069176 H 0.0 **** 0.06
15585 H 125.84473763469828 57.25453251666721 187.67284302968116 H 0.0 **** 0.06
15586 C 165.95277259921104 128.77714788346816 168.71062702325105 C 0.0 **** -0.24
15587 H 166.87603571599485 129.26880239770435 169.01622762174202 H 0.0 **** 0.06
15588 H 166.10070683941194 128.29419927644176 167.74567171541673 H 0.0 **** 0.06
15589 H 165.15730172580055 129.51752250496207 168.62952721534157 H 0.0 **** 0.06
15590 H 165.6781009050864 128.02844670720253 169.45435930961492 H 0.0 **** 0.06
15591 C 143.83380090819787 177.25793753806627 176.5625640762509 C 0.0 **** -0.24
15592 H 144.23278321331478 178.24963415920033 176.7738898839374 H 0.0 **** 0.06
15593 H 143.8454704377029 176.65927644394924 177.47368174758012 H 0.0 **** 0.06
15594 H 144.44694741999632 176.77436452508167 175.80228572439444 H 0.0 **** 0.06
15595 H 142.80900780736334 177.34837279879636 176.20040488820644 H 0.0 **** 0.06
15596 C 87.65597614585963 102.5052205881932 2.8599831187085556 C 0.0 **** -0.24
15597 H 88.16299947839772 102.53174973434932 3.8247153278054498 H 0.0 **** 0.06
15598 H 86.93306883071145 103.31999191653978 2.807187256892689 H 0.0 **** 0.06
15599 H 87.13916145132305 101.55261581447706 2.7464825260622376 H 0.0 **** 0.06
15600 H 88.39036282559931 102.61828770826196 2.0613394227869435 H 0.0 **** 0.06
15601 C 84.45556583110928 79.68639191819955 55.40190011127419 C 0.0 **** -0.24
15602 H 83.37137583010667 79.59941847278458 55.47849881290824 H 0.0 **** 0.06
15603 H 84.78088988752438 80.60533135630618 55.891371548549785 H 0.0 **** 0.06
15604 H 84.74415102281813 79.71161157759167 54.35103463885315 H 0.0 **** 0.06
15605 H 84.92435580816576 78.83114849149246 55.88676945650258 H 0.0 **** 0.06
15606 C 149.9180211684742 137.85276436583945 169.0215383373879 C 0.0 **** -0.24
15607 H 150.95949619676716 137.53046700729547 168.98878328841332 H 0.0 **** 0.06
15608 H 149.7018620580165 138.2827914958607 169.99975794395831 H 0.0 **** 0.06
15609 H 149.26807907103543 136.9947371945441 168.84944147837263 H 0.0 **** 0.06
15610 H 149.74545944641946 138.60130330332754 168.24818292435083 H 0.0 **** 0.06
15611 C 88.6128687422989 84.0089339695385 68.73919462348039 C 0.0 **** -0.24
15612 H 88.38984662074412 85.06093065734376 68.55699742937156 H 0.0 **** 0.06
15613 H 89.55779337154405 83.92638741251773 69.27729704693814 H 0.0 **** 0.06
15614 H 88.68876517813396 83.48435367216297 67.78750723065886 H 0.0 **** 0.06
15615 H 87.81455489241381 83.56707611622721 69.33579107406389 H 0.0 **** 0.06
15616 C 126.15203340603506 91.5986851294436 59.01472367450688 C 0.0 **** -0.24
15617 H 126.85351117854148 91.63273238375334 58.18073601522745 H 0.0 **** 0.06
15618 H 126.49357507196373 90.864836183114 59.745680394553744 H 0.0 **** 0.06
15619 H 125.16559415744646 91.3155936751291 58.64893754040011 H 0.0 **** 0.06
15620 H 126.09807105198567 92.57997293858404 59.48429576069391 H 0.0 **** 0.06
15621 C 75.04225748305458 48.314584834084485 39.04832358035415 C 0.0 **** -0.24
15622 H 75.23942992453897 49.2780314761651 39.52021373169232 H 0.0 **** 0.06
15623 H 75.01765426809521 47.53554990492103 39.810751254500275 H 0.0 **** 0.06
15624 H 75.83151689940058 48.09484645814183 38.329381787177724 H 0.0 **** 0.06
15625 H 74.08244047013187 48.35195280765436 38.53461686946446 H 0.0 **** 0.06
15626 C 141.69663365901712 29.381121557764644 162.20601756861592 C 0.0 **** -0.24
15627 H 142.14185973843885 29.140845268732562 161.239717532452 H 0.0 **** 0.06
15628 H 140.82091694951765 30.012764297767234 162.05497324319364 H 0.0 **** 0.06
15629 H 142.42506469412294 29.911242918624268 162.81959662022007 H 0.0 **** 0.06
15630 H 141.39947658111035 28.460441306828955 162.70785043141717 H 0.0 **** 0.06
15631 C 111.63404050250085 95.15839226417151 140.51883224917162 C 0.0 **** -0.24
15632 H 112.4186310530464 94.46936036156683 140.20605215201806 H 0.0 **** 0.06
15633 H 111.33864789028598 94.93232318131012 141.54329681771776 H 0.0 **** 0.06
15634 H 110.77197530998887 95.05053192403264 139.8597863816688 H 0.0 **** 0.06
15635 H 112.00797183454438 96.18111388918996 140.46400038021932 H 0.0 **** 0.06
15636 C 33.70966634591517 162.7190191708781 120.35848183263673 C 0.0 **** -0.24
15637 H 34.289049468847 161.98920954050539 119.7946656024705 H 0.0 **** 0.06
15638 H 33.47463183104841 162.31410590412753 121.34314863916876 H 0.0 **** 0.06
15639 H 32.78488630991336 162.93788917694022 119.82517003291721 H 0.0 **** 0.06
15640 H 34.289831286089964 163.63530305947634 120.47180517373911 H 0.0 **** 0.06
15641 C 166.78141051659918 98.81209105957947 132.21279242922552 C 0.0 **** -0.24
15642 H 166.7673874428039 98.83997642687422 133.30245588515234 H 0.0 **** 0.06
15643 H 167.8077538621036 98.69440723414525 131.86589687559461 H 0.0 **** 0.06
15644 H 166.3682595270725 99.74072150785344 131.81963670651987 H 0.0 **** 0.06
15645 H 166.18155415362799 97.97119258095506 131.86430171074085 H 0.0 **** 0.06
15646 C 35.638063621649025 152.164554139472 156.8423773157167 C 0.0 **** -0.24
15647 H 35.931480086363564 152.95319259610858 156.14985667700114 H 0.0 **** 0.06
15648 H 36.527258412011065 151.74882212808456 157.31618655954043 H 0.0 **** 0.06
15649 H 35.1155544621091 151.37811369582607 156.29783412403663 H 0.0 **** 0.06
15650 H 34.97878808785008 152.57861119267517 157.60542398167868 H 0.0 **** 0.06
15651 C 179.74084531834072 164.15099767107637 138.6289063933477 C 0.0 **** -0.24
15652 H 179.36443756114144 163.12803082910125 138.62260364513014 H 0.0 **** 0.06
15653 H 180.08005209274944 164.4062904451764 139.63409299333165 H 0.0 **** 0.06
15654 H 178.94517045744547 164.8322246062085 138.32985785477445 H 0.0 **** 0.06
15655 H 180.57418079559957 164.23584245066314 137.93242093149084 H 0.0 **** 0.06
15656 C 44.266563642416656 80.02440790382465 147.70584897943735 C 0.0 **** -0.24
15657 H 43.75575224284259 79.09074100354758 147.47464025799425 H 0.0 **** 0.06
15658 H 43.542420149589276 80.83915249840945 147.7272765692095 H 0.0 **** 0.06
15659 H 45.01748800598432 80.22687665388511 146.94184001460528 H 0.0 **** 0.06
15660 H 44.75137123175307 79.94274250455337 148.67871281765954 H 0.0 **** 0.06
15661 C 137.94409085292003 39.34850361929986 174.0623712944701 C 0.0 **** -0.24
15662 H 138.44448949993875 38.38038764428684 174.0705765942474 H 0.0 **** 0.06
15663 H 138.46712506839484 40.033290336903235 174.73057265811548 H 0.0 **** 0.06
15664 H 136.91431428188372 39.22847186660151 174.39722536723957 H 0.0 **** 0.06
15665 H 137.9525445195358 39.752585133907615 173.04937012065182 H 0.0 **** 0.06
15666 C 195.43063948240518 197.9800750599402 124.61680527960837 C 0.0 **** -0.24
15667 H 196.35560250343838 197.42382794234214 124.7665157355641 H 0.0 **** 0.06
15668 H 195.02842078654865 198.2828513977345 125.58363375180741 H 0.0 **** 0.06
15669 H 194.70630743358075 197.34752493005573 124.10243661262618 H 0.0 **** 0.06
15670 H 195.63306416636115 198.86419856753412 124.01246717220374 H 0.0 **** 0.06
15671 C 140.07404078774502 102.8068325136523 5.305652950993476 C 0.0 **** -0.24
15672 H 140.7108624365586 102.36536422651403 4.538583438395676 H 0.0 **** 0.06
15673 H 139.11591038145312 102.28799824864012 5.322909813966987 H 0.0 **** 0.06
15674 H 139.9136189904408 103.86060658102531 5.0816558386625275 H 0.0 **** 0.06
15675 H 140.55762706202387 102.71055056595168 6.277832351923735 H 0.0 **** 0.06
15676 C 57.91500352368831 82.47906326232575 125.67275877295174 C 0.0 **** -0.24
15677 H 57.533280011002475 82.41452218306875 126.69241034234432 H 0.0 **** 0.06
15678 H 58.9361988354552 82.86003996894141 125.69066326768379 H 0.0 **** 0.06
15679 H 57.285683962498 83.15302677601224 125.0910734922231 H 0.0 **** 0.06
15680 H 57.90359419653724 81.488261991993 125.21839068882534 H 0.0 **** 0.06
15681 C 49.476636928640744 4.384171285085387 106.80086857139662 C 0.0 **** -0.24
15682 H 50.4450154936695 3.9843460868838747 107.10065922303974 H 0.0 **** 0.06
15683 H 49.615556204356665 5.111194472504792 106.00036721957972 H 0.0 **** 0.06
15684 H 49.003309350326845 4.86922662006981 107.65485804384028 H 0.0 **** 0.06
15685 H 48.84237603448486 3.5706702990635506 106.44818889546102 H 0.0 **** 0.06
15686 C 166.20240213485957 141.95452444450476 4.188747171765101 C 0.0 **** -0.24
15687 H 167.24408580864184 142.24441410311186 4.331343881442223 H 0.0 **** 0.06
15688 H 166.09183836284052 140.88886936814558 4.39311601848874 H 0.0 **** 0.06
15689 H 165.90492213445577 142.16034851605477 3.1613126248518313 H 0.0 **** 0.06
15690 H 165.57126325434075 142.52254833815616 4.871233232704128 H 0.0 **** 0.06
15691 C 162.69728716189627 194.72023521045514 54.616276955313 C 0.0 **** -0.24
15692 H 162.77728289276348 195.7994715873424 54.488088824230985 H 0.0 **** 0.06
15693 H 161.6935692703412 194.46848095968008 54.95928115634591 H 0.0 **** 0.06
15694 H 163.4273315608139 194.38677636136424 55.3548404847775 H 0.0 **** 0.06
15695 H 162.89215172941167 194.22563426213014 53.66496082813826 H 0.0 **** 0.06
15696 C 7.845869330932203 173.3841281622982 17.420376038497665 C 0.0 **** -0.24
15697 H 8.76310397751277 172.79999079236538 17.496078231661784 H 0.0 **** 0.06
15698 H 7.031461848956752 172.8447871792074 17.904206011284927 H 0.0 **** 0.06
15699 H 7.603068894688647 173.54434702383503 16.369894459609867 H 0.0 **** 0.06
15700 H 7.987910548617265 174.34707007491244 17.912114660462905 H 0.0 **** 0.06
15701 C 49.688025142848076 26.748319027830988 102.96431184052508 C 0.0 **** -0.24
15702 H 50.63698232441725 27.176710845178093 102.63790648783089 H 0.0 **** 0.06
15703 H 49.02667792652231 26.637075397603695 102.10441625399653 H 0.0 **** 0.06
15704 H 49.22501993085079 27.40876339717225 103.69756083877493 H 0.0 **** 0.06
15705 H 49.86716893327083 25.772109169440043 103.41511945078247 H 0.0 **** 0.06
15706 C 113.42104629424875 76.131734934278 137.88671059970432 C 0.0 **** -0.24
15707 H 114.33089196345372 76.72932530243737 137.93814289626317 H 0.0 **** 0.06
15708 H 113.67766279186003 75.0748054793174 137.954118089002 H 0.0 **** 0.06
15709 H 112.91341512494876 76.32368858832615 136.94165871573216 H 0.0 **** 0.06
15710 H 112.7636412837013 76.40044949680635 138.71401818095012 H 0.0 **** 0.06
15711 C 108.33396407523065 24.83444585019805 20.14785570211353 C 0.0 **** -0.24
15712 H 109.11900234611912 24.792516073262163 19.392562051780658 H 0.0 **** 0.06
15713 H 108.68180926453212 24.350231510379444 21.060396595247425 H 0.0 **** 0.06
15714 H 107.44723473016509 24.31867783677228 19.778231399468922 H 0.0 **** 0.06
15715 H 108.08773793059387 25.874878552709845 20.35828180444247 H 0.0 **** 0.06
15716 C 151.5212065245834 144.4171837196344 115.87327982319994 C 0.0 **** -0.24
15717 H 150.53876054186557 144.10213382151022 116.2248123729637 H 0.0 **** 0.06
15718 H 152.2927442104261 143.8525698024886 116.39766081673531 H 0.0 **** 0.06
15719 H 151.6522690550903 145.4814641645546 116.07029363637912 H 0.0 **** 0.06
15720 H 151.60094967596677 144.23308616363713 114.80252505522174 H 0.0 **** 0.06
15721 C 66.69298285448652 23.82016976056734 83.78728532042578 C 0.0 **** -0.24
15722 H 66.45069206271121 22.845270346110325 83.36418132931453 H 0.0 **** 0.06
15723 H 67.56320441795967 24.23334297667131 83.27647613486579 H 0.0 **** 0.06
15724 H 66.91294223237841 23.710539986035045 84.8493940130844 H 0.0 **** 0.06
15725 H 65.84365039554028 24.492340048653446 83.6605920502767 H 0.0 **** 0.06
15726 C 23.640512441262047 117.70457561993385 98.70014053132343 C 0.0 **** -0.24
15727 H 23.643958421234885 116.6653727727984 99.02830701382436 H 0.0 **** 0.06
15728 H 23.350200842468055 117.75350847755217 97.6502527032726 H 0.0 **** 0.06
15729 H 24.637883066625122 118.12786111751007 98.82153623760581 H 0.0 **** 0.06
15730 H 22.929281529010737 118.27222604320292 99.30029407182883 H 0.0 **** 0.06
15731 C 30.573844980381594 56.803257718081625 131.78863188662035 C 0.0 **** -0.24
15732 H 29.73114120294605 56.11603737722396 131.71789141505178 H 0.0 **** 0.06
15733 H 31.356442241284554 56.49179363726668 131.09518658655483 H 0.0 **** 0.06
15734 H 30.964752039500056 56.79505221513375 132.8059941715774 H 0.0 **** 0.06
15735 H 30.242963034694554 57.810628370910536 131.5345822779181 H 0.0 **** 0.06
15736 C 62.68888835656004 43.914290884983814 34.731709702320416 C 0.0 **** -0.24
15737 H 62.85350030945054 44.643503858671465 33.9384966005201 H 0.0 **** 0.06
15738 H 62.25793382991884 43.00703837984224 34.30696884641512 H 0.0 **** 0.06
15739 H 62.00419706620724 44.32880338056893 35.471120206714176 H 0.0 **** 0.06
15740 H 63.6390735155602 43.675935797865804 35.20939442354697 H 0.0 **** 0.06
15741 C 104.20655233915286 8.687493732592742 150.00506966662556 C 0.0 **** -0.24
15742 H 104.71215072793075 9.300939544208063 149.2597548516046 H 0.0 **** 0.06
15743 H 103.2768315965964 9.171975850227824 150.30452269373467 H 0.0 **** 0.06
15744 H 104.85176696936094 8.568527640474343 150.8757497695688 H 0.0 **** 0.06
15745 H 103.98609324035675 7.707822189556111 149.57994244184937 H 0.0 **** 0.06
15746 C 154.45524232965604 50.91962412693158 194.01988020816373 C 0.0 **** -0.24
15747 H 153.70271575690964 51.707180324945455 193.96223723207237 H 0.0 **** 0.06
15748 H 155.44548071243946 51.355434553677085 193.88520685832935 H 0.0 **** 0.06
15749 H 154.27129616270648 50.18427947774151 193.23724701511088 H 0.0 **** 0.06
15750 H 154.40047638320635 50.435844645088466 194.9948621445197 H 0.0 **** 0.06
15751 C 46.4628509176342 30.08645175168931 39.527092633657844 C 0.0 **** -0.24
15752 H 47.44290695490915 29.856237620613115 39.944808203949435 H 0.0 **** 0.06
15753 H 46.566925616933645 30.329746518398565 38.470010431735034 H 0.0 **** 0.06
15754 H 46.03298735210461 30.93747498692335 40.055704455370375 H 0.0 **** 0.06
15755 H 45.80782010516526 29.221706835918383 39.63777040577099 H 0.0 **** 0.06
15756 C 41.15018748032051 44.108173681373316 138.58245926123405 C 0.0 **** -0.24
15757 H 40.72121167105817 44.95387971837161 139.1214173034258 H 0.0 **** 0.06
15758 H 40.480353064440635 43.25205051811477 138.658476705743 H 0.0 **** 0.06
15759 H 42.116322111050465 43.85386481969849 139.01659579189513 H 0.0 **** 0.06
15760 H 41.281770861314385 44.374817528322666 137.5337064022405 H 0.0 **** 0.06
15761 C 151.1787318351897 47.86976643205685 142.60674958104195 C 0.0 **** -0.24
15762 H 150.33525218798417 47.23801518448872 142.8866355321113 H 0.0 **** 0.06
15763 H 150.97156506890548 48.348327717168985 141.64930312230027 H 0.0 **** 0.06
15764 H 152.0777179808423 47.25795760671812 142.520328556161 H 0.0 **** 0.06
15765 H 151.33035919101087 48.63247394927063 143.36986559316 H 0.0 **** 0.06
15766 C 59.947735077684 54.85480158495912 13.181618930481612 C 0.0 **** -0.24
15767 H 59.10936827338122 54.21857593483949 13.46690777709098 H 0.0 **** 0.06
15768 H 60.715293354750315 54.81108134845293 13.954789371406001 H 0.0 **** 0.06
15769 H 59.60164616836295 55.88221843425143 13.06961998966922 H 0.0 **** 0.06
15770 H 60.3632511049957 54.505537524710476 12.236094873916848 H 0.0 **** 0.06
15771 C 155.40335837739627 144.6636980959062 159.56248130854308 C 0.0 **** -0.24
15772 H 154.82050305457093 145.50043061173244 159.17741760960652 H 0.0 **** 0.06
15773 H 155.50192075430664 143.90344519005717 158.787128049716 H 0.0 **** 0.06
15774 H 154.89677839910846 144.23610881120516 160.42832126711502 H 0.0 **** 0.06
15775 H 156.3920537915975 145.01447892402507 159.85598572216577 H 0.0 **** 0.06
15776 C 106.79053306966614 92.83924903333255 78.98065606343042 C 0.0 **** -0.24
15777 H 107.00498194048322 91.97894432984117 78.34719006913295 H 0.0 **** 0.06
15778 H 107.4448879631137 93.66647419392706 78.7043611033487 H 0.0 **** 0.06
15779 H 106.96255274821661 92.57373861564557 80.02445928399254 H 0.0 **** 0.06
15780 H 105.75108661247668 93.13760061585239 78.8486255666642 H 0.0 **** 0.06
15781 C 188.34002721279273 1.4546707325399666 179.10146887006303 C 0.0 **** -0.24
15782 H 188.83899385159117 1.2707597891650266 178.14999961662977 H 0.0 **** 0.06
15783 H 189.05253886854962 1.319386662221632 179.9164382482134 H 0.0 **** 0.06
15784 H 187.51470477965074 0.7526157699036276 179.21999900467299 H 0.0 **** 0.06
15785 H 187.95620712710138 2.4740454672009946 179.11927183240584 H 0.0 **** 0.06
15786 C 115.47324506763817 20.274042324609695 167.9426071008105 C 0.0 **** -0.24
15787 H 115.6102379539748 21.328559963907765 167.70423518785242 H 0.0 **** 0.06
15788 H 116.07836530693709 20.01690374850736 168.813383182096 H 0.0 **** 0.06
15789 H 115.7824714781963 19.666231238498597 167.092724534328 H 0.0 **** 0.06
15790 H 114.42304348432086 20.085049928186777 168.16192231094197 H 0.0 **** 0.06
15791 C 89.18996145038295 185.48618702753038 187.25951550442363 C 0.0 **** -0.24
15792 H 89.6669097402779 185.46826233853983 186.2798065137367 H 0.0 **** 0.06
15793 H 88.70635600693345 184.5271842474442 187.44468331935298 H 0.0 **** 0.06
15794 H 88.44487893394643 186.28079247211173 187.286881469069 H 0.0 **** 0.06
15795 H 89.94356176361089 185.66737811813914 188.02719973751223 H 0.0 **** 0.06
15796 C 175.96564304575935 43.5945210700736 182.39510574079628 C 0.0 **** -0.24
15797 H 175.51690509621992 42.727506031044925 181.90945167131773 H 0.0 **** 0.06
15798 H 175.454265820951 44.49928536259375 182.0661960339611 H 0.0 **** 0.06
15799 H 177.02031857406345 43.65576339001149 182.12695729635624 H 0.0 **** 0.06
15800 H 175.87022912719482 43.495573151275096 183.47552238941378 H 0.0 **** 0.06
15801 C 65.21298324627146 77.62080517825993 193.19286197201373 C 0.0 **** -0.24
15802 H 65.58424796678838 78.19597845438432 194.04134880317125 H 0.0 **** 0.06
15803 H 65.1908146493683 78.25530073861343 192.30600197638668 H 0.0 **** 0.06
15804 H 64.20745380248742 77.26250531465435 193.4088860105534 H 0.0 **** 0.06
15805 H 65.87186891972411 76.7707517254247 193.01571661089622 H 0.0 **** 0.06
15806 C 21.05803806306801 80.05382927988413 158.71727611150368 C 0.0 **** -0.24
15807 H 20.593601068568603 79.26278083489152 159.30615922485146 H 0.0 **** 0.06
15808 H 20.449291109199237 80.95594940080397 158.77765917676206 H 0.0 **** 0.06
15809 H 21.133863215435923 79.73535702248918 157.67666970576323 H 0.0 **** 0.06
15810 H 22.054150920588057 80.26000654529659 159.10764103273772 H 0.0 **** 0.06
15811 C 30.06304502890157 19.562975179227976 192.7767552195026 C 0.0 **** -0.24
15812 H 29.033151565142163 19.45447314997955 193.1168264550957 H 0.0 **** 0.06
15813 H 30.713995021315895 19.72277052563186 193.63617725325702 H 0.0 **** 0.06
15814 H 30.13504739314385 20.41515932823563 192.10189635225595 H 0.0 **** 0.06
15815 H 30.368853254637514 18.657329425728676 192.25199736887848 H 0.0 **** 0.06
15816 C 101.3090825202502 166.0986762244478 170.7725596400387 C 0.0 **** -0.24
15817 H 100.64568453616818 166.21042695376445 171.6303087736595 H 0.0 **** 0.06
15818 H 102.20595451208018 165.558392599606 171.07579703925518 H 0.0 **** 0.06
15819 H 101.58702590224092 167.08354156631202 170.3972378892324 H 0.0 **** 0.06
15820 H 100.79766513051158 165.54234377810852 169.98689485800776 H 0.0 **** 0.06
15821 C 68.4743304910848 61.82735405637811 33.11039858487726 C 0.0 **** -0.24
15822 H 68.01433368214961 62.812203603756075 33.03375674286511 H 0.0 **** 0.06
15823 H 68.69523229906031 61.449990589218885 32.11129953309694 H 0.0 **** 0.06
15824 H 67.78945823327427 61.144823475684575 33.61433577879504 H 0.0 **** 0.06
15825 H 69.39910438222174 61.902577276302736 33.6833500856128 H 0.0 **** 0.06
15826 C 8.125802471354419 17.558316833757956 181.40723790349386 C 0.0 **** -0.24
15827 H 7.637076902721276 18.501625371095372 181.64707527190973 H 0.0 **** 0.06
15828 H 7.976405925118264 17.330416437805127 180.35182245682162 H 0.0 **** 0.06
15829 H 7.698582597858227 16.76170845056558 182.01560697459036 H 0.0 **** 0.06
15830 H 9.19383676502079 17.63919438737733 181.6131633378858 H 0.0 **** 0.06
15831 C 117.07043000616068 81.65302536993906 76.88192175644355 C 0.0 **** -0.24
15832 H 116.97295040254738 82.73913936937475 76.86747127139498 H 0.0 **** 0.06
15833 H 116.13971962978056 81.21057487074054 77.23735169044564 H 0.0 **** 0.06
15834 H 117.88525609246278 81.3704989472329 77.54783236033803 H 0.0 **** 0.06
15835 H 117.28258149370143 81.29461178896258 75.8746957982592 H 0.0 **** 0.06
15836 C 171.71167541688706 196.95969618003508 25.61155845436643 C 0.0 **** -0.24
15837 H 171.37011417858864 196.05547768114212 26.11664412715153 H 0.0 **** 0.06
15838 H 170.89689576168612 197.68242655559033 25.570599996025123 H 0.0 **** 0.06
15839 H 172.02931041735388 196.71161020251043 24.5984774847294 H 0.0 **** 0.06
15840 H 172.55003153520084 197.38689796388917 26.16101210890929 H 0.0 **** 0.06
15841 C 167.54844030063964 144.3573365455041 46.80176222956126 C 0.0 **** -0.24
15842 H 167.8995458557678 145.049099258918 46.035600409040285 H 0.0 **** 0.06
15843 H 168.35373930622373 143.67468327818435 47.07104402894811 H 0.0 **** 0.06
15844 H 166.70163163064757 143.78850339927007 46.41658872290395 H 0.0 **** 0.06
15845 H 167.2374473172037 144.9193956404035 47.68220508065417 H 0.0 **** 0.06
15846 C 34.97002987729293 80.58353931813838 124.82609337988512 C 0.0 **** -0.24
15847 H 34.617038631925 79.79629013574248 125.49174161565443 H 0.0 **** 0.06
15848 H 35.5059174208142 81.33600803842916 125.40584770563498 H 0.0 **** 0.06
15849 H 34.118397247025285 81.04680273738546 124.32775559024441 H 0.0 **** 0.06
15850 H 35.63898816115427 80.15517214372471 124.0804205042009 H 0.0 **** 0.06
15851 C 120.68502911883343 151.12148080934148 125.2776950350412 C 0.0 **** -0.24
15852 H 121.07287579360786 150.20398832370657 124.83409364031294 H 0.0 **** 0.06
15853 H 121.0111669955487 151.97716667907656 124.68539908905223 H 0.0 **** 0.06
15854 H 121.06063729078903 151.2182788234906 126.29578800887103 H 0.0 **** 0.06
15855 H 119.5954338741999 151.08475192486617 125.29305372619166 H 0.0 **** 0.06
15856 C 67.15677322207597 49.30886665649291 61.123297237987416 C 0.0 **** -0.24
15857 H 66.07480943838311 49.24604708404843 61.23605688162256 H 0.0 **** 0.06
15858 H 67.55344213770798 50.03612136239218 61.83148226981764 H 0.0 **** 0.06
15859 H 67.39781720464907 49.62170827255051 60.10777343921589 H 0.0 **** 0.06
15860 H 67.59906703079685 48.33206865839372 61.31690643567943 H 0.0 **** 0.06
15861 C 135.73313990880416 72.37125550434672 180.51852323168987 C 0.0 **** -0.24
15862 H 136.62611779576991 72.96534923193963 180.32230438725384 H 0.0 **** 0.06
15863 H 135.87913147101736 71.36034986408515 180.13948773618995 H 0.0 **** 0.06
15864 H 134.87795156264465 72.82750259485965 180.020323313099 H 0.0 **** 0.06
15865 H 135.55046009194635 72.33458865614489 181.59232922069884 H 0.0 **** 0.06
15866 C 198.09888391667215 138.90440073069473 108.21635739042947 C 0.0 **** -0.24
15867 H 198.25947589122018 138.4494049040586 109.1940463544787 H 0.0 **** 0.06
15868 H 197.9420014855188 139.97627287171525 108.33714107565856 H 0.0 **** 0.06
15869 H 197.22109431055566 138.45877982952123 107.74921064129293 H 0.0 **** 0.06
15870 H 198.97276145952816 138.7325092852238 107.58857475568638 H 0.0 **** 0.06
15871 C 84.99558321732516 93.21548123955893 123.6906827966319 C 0.0 **** -0.24
15872 H 84.32556280917817 94.05158490476202 123.89408147752886 H 0.0 **** 0.06
15873 H 85.98862998056794 93.44319798453722 124.07887721331895 H 0.0 **** 0.06
15874 H 85.0539604567679 93.05175365443432 122.6141155288301 H 0.0 **** 0.06
15875 H 84.61251205706355 92.31670886573184 124.17496722690453 H 0.0 **** 0.06
15876 C 176.8605691317415 151.10017439410586 63.990651254539074 C 0.0 **** -0.24
15877 H 176.4779277069722 151.61191122693296 64.87354854738153 H 0.0 **** 0.06
15878 H 176.79362392582328 151.76461294859163 63.12900490285293 H 0.0 **** 0.06
15879 H 176.26771354303358 150.20368117716583 63.80596267644384 H 0.0 **** 0.06
15880 H 177.90094420094474 150.82091214270045 64.15483096036141 H 0.0 **** 0.06
15881 C 142.0814946668927 134.50841157213964 47.09400589036392 C 0.0 **** -0.24
15882 H 141.37784515939603 135.32247214212327 47.26734208437453 H 0.0 **** 0.06
15883 H 143.0727899284238 134.8066101098921 47.43588602556905 H 0.0 **** 0.06
15884 H 142.11633282003476 134.2806314043837 46.02877062312183 H 0.0 **** 0.06
15885 H 141.75688841282607 133.62462890027203 47.64392012654511 H 0.0 **** 0.06
15886 C 174.41861356436465 0.22999202415881115 130.5219507105684 C 0.0 **** -0.24
15887 H 175.26201761817094 -0.28459914219439497 130.06350640966164 H 0.0 **** 0.06
15888 H 173.69862812360296 -0.5037925123736855 130.88565240549227 H 0.0 **** 0.06
15889 H 173.93982872859561 0.8736197397066121 129.78334923001873 H 0.0 **** 0.06
15890 H 174.7726219429095 0.8356297729486215 131.35683255255177 H 0.0 **** 0.06
15891 C 127.49241205877414 126.99931652272028 17.83070718469483 C 0.0 **** -0.24
15892 H 128.30011254446828 127.71981842314966 17.701232774956623 H 0.0 **** 0.06
15893 H 126.9174445291124 127.25405008421899 18.72176378454583 H 0.0 **** 0.06
15894 H 127.91074911696896 125.99885158974453 17.940085891869757 H 0.0 **** 0.06
15895 H 126.84002798226044 127.02610522241145 16.957329210140756 H 0.0 **** 0.06
15896 C 137.86053614637217 143.14579572597927 108.34984957479068 C 0.0 **** -0.24
15897 H 138.1585590399254 142.9564121717275 109.38184324776344 H 0.0 **** 0.06
15898 H 138.41152018187813 144.00422748533055 107.9655356519443 H 0.0 **** 0.06
15899 H 136.79108223577825 143.35296970220807 108.31325781842156 H 0.0 **** 0.06
15900 H 138.0813757112203 142.2692434809465 107.74154314700013 H 0.0 **** 0.06
15901 C 8.301508393548175 155.15650147796157 85.46482708124844 C 0.0 **** -0.24
15902 H 8.225743084379332 154.7208766811074 84.46907745740853 H 0.0 **** 0.06
15903 H 9.234871273309835 155.71364193504542 85.54779656804251 H 0.0 **** 0.06
15904 H 8.284329254529268 154.36238819859378 86.2107571330616 H 0.0 **** 0.06
15905 H 7.459404931541002 155.82937363355396 85.631384990123 H 0.0 **** 0.06
15906 C 42.8860354626234 186.7821552359219 85.88505135569528 C 0.0 **** -0.24
15907 H 42.02798744075774 186.17265571119867 85.60093938567223 H 0.0 **** 0.06
15908 H 43.692605332800426 186.6295988474495 85.16833714323539 H 0.0 **** 0.06
15909 H 43.22367010953052 186.4935115964679 86.88026106697879 H 0.0 **** 0.06
15910 H 42.59802710147319 187.8337693425518 85.8898109186899 H 0.0 **** 0.06
15911 C 67.49186363337577 95.30763260996292 49.8913458270018 C 0.0 **** -0.24
15912 H 67.29575097889303 95.33790189182469 48.820080567821606 H 0.0 **** 0.06
15913 H 68.12167701558896 94.44719143978955 50.11994767325092 H 0.0 **** 0.06
15914 H 66.54899090218703 95.22162394561425 50.431113552307295 H 0.0 **** 0.06
15915 H 68.00178154831774 96.22254074863838 50.193333415756 H 0.0 **** 0.06
15916 C 81.34126135057934 74.5660848138272 177.0972512934635 C 0.0 **** -0.24
15917 H 81.09487992728205 73.54250868410608 177.37739903511158 H 0.0 **** 0.06
15918 H 80.43446259971569 75.17062610753916 177.096527103656 H 0.0 **** 0.06
15919 H 81.78530091091679 74.57424887236986 176.10244785924266 H 0.0 **** 0.06
15920 H 82.05173019521607 74.97740584450004 177.81508744290807 H 0.0 **** 0.06
15921 C 133.0894422743601 164.05032396865147 72.69158540466002 C 0.0 **** -0.24
15922 H 133.41951884178485 163.04351510473373 72.43512281542073 H 0.0 **** 0.06
15923 H 133.79748679148977 164.49882485499393 73.38783434036263 H 0.0 **** 0.06
15924 H 132.10405248267836 164.0014376265538 73.15444689149602 H 0.0 **** 0.06
15925 H 133.03641224107267 164.65578921053825 71.78578775784365 H 0.0 **** 0.06
15926 C 72.80927084254324 37.591747740816416 194.47555243098043 C 0.0 **** -0.24
15927 H 73.04718193481293 36.57360045108143 194.78278049020724 H 0.0 **** 0.06
15928 H 73.44210291110923 37.8744289097542 193.63456396363364 H 0.0 **** 0.06
15929 H 72.98425198882329 38.272780620907085 195.30804236077773 H 0.0 **** 0.06
15930 H 71.7624952524309 37.645251959017685 194.1766446833828 H 0.0 **** 0.06
15931 C 133.9320712896046 158.55846314681696 149.33701883281046 C 0.0 **** -0.24
15932 H 133.29350768545726 159.44159915619252 149.32753264126282 H 0.0 **** 0.06
15933 H 133.3526910658762 157.68871321882935 149.0289063868611 H 0.0 **** 0.06
15934 H 134.31769996506344 158.4008280648805 150.34457647459925 H 0.0 **** 0.06
15935 H 134.7645631761888 158.7044157612246 148.64849738649565 H 0.0 **** 0.06
15936 C 195.77375704241067 166.27452941956818 62.75106966846633 C 0.0 **** -0.24
15937 H 196.22787100488716 167.24928348543202 62.569521523540146 H 0.0 **** 0.06
15938 H 195.75705286303108 166.0755990905202 63.82307078654138 H 0.0 **** 0.06
15939 H 196.35594786646192 165.50335385765703 62.24752844851942 H 0.0 **** 0.06
15940 H 194.75459276067505 166.2710741375688 62.36477974312187 H 0.0 **** 0.06
15941 C 51.784826053968885 87.05347475827318 69.89139326224353 C 0.0 **** -0.24
15942 H 51.06554020904305 86.38121601073871 70.35995035390413 H 0.0 **** 0.06
15943 H 52.78484724314143 86.62771288960482 69.97366801140608 H 0.0 **** 0.06
15944 H 51.75896474269824 88.01991269117966 70.39380402528796 H 0.0 **** 0.06
15945 H 51.52917912557089 87.18273375552857 68.83988366455038 H 0.0 **** 0.06
15946 C 51.601407920674205 34.51994314129979 75.40568345805355 C 0.0 **** -0.24
15947 H 52.523971195292916 33.97842992612385 75.19686506452304 H 0.0 **** 0.06
15948 H 51.541376349214715 35.396974636630034 74.76055582115787 H 0.0 **** 0.06
15949 H 51.59398180121377 34.835550388554424 76.44892484847792 H 0.0 **** 0.06
15950 H 50.74848274207159 33.86927773070752 75.21620307315263 H 0.0 **** 0.06
15951 C 106.34257329731699 112.12311347610836 65.51532494262791 C 0.0 **** -0.24
15952 H 105.69898787839145 112.74858206046048 66.13429630731686 H 0.0 **** 0.06
15953 H 105.79238515701749 111.79527752092122 64.6344190239767 H 0.0 **** 0.06
15954 H 106.6627521782967 111.2530680270288 66.08973604279937 H 0.0 **** 0.06
15955 H 107.2168904378506 112.69573622569021 65.20651367681866 H 0.0 **** 0.06
15956 C 170.48626176018666 148.7159315597493 93.66941885205364 C 0.0 **** -0.24
15957 H 169.94795348539836 148.9180843746983 92.74346846386709 H 0.0 **** 0.06
15958 H 171.12230787153928 149.56766604449473 93.9131470250793 H 0.0 **** 0.06
15959 H 171.1038953861778 147.82635567366486 93.54337861142835 H 0.0 **** 0.06
15960 H 169.77272616916167 148.55257160945504 94.47636813497104 H 0.0 **** 0.06
15961 C 84.6788532498594 169.84278397140122 43.32984774576681 C 0.0 **** -0.24
15962 H 84.28369326815465 170.8280741841935 43.08205050372641 H 0.0 **** 0.06
15963 H 84.96490583506136 169.32487155347872 42.41486178414675 H 0.0 **** 0.06
15964 H 83.91382856953345 169.26593894399386 43.85034150462016 H 0.0 **** 0.06
15965 H 85.55195259870686 169.9525698335463 43.973049326157934 H 0.0 **** 0.06
15966 C 141.38808320844328 195.05591472739846 104.5187241698446 C 0.0 **** -0.24
15967 H 141.60004809358617 193.98902289972156 104.44270169603567 H 0.0 **** 0.06
15968 H 142.32223042899614 195.60344208395742 104.64604839325801 H 0.0 **** 0.06
15969 H 140.74081492922392 195.23703558806764 105.37708930228968 H 0.0 **** 0.06
15970 H 140.88967234914116 195.3929452697738 103.61088515905939 H 0.0 **** 0.06
15971 C 114.09328766739736 33.54098282050427 125.70812240141095 C 0.0 **** -0.24
15972 H 113.07792495044313 33.379614314348714 125.34649492248207 H 0.0 **** 0.06
15973 H 114.55611030628941 34.35000184258081 125.1431169980371 H 0.0 **** 0.06
15974 H 114.67484878027037 32.62738494038376 125.57634867887447 H 0.0 **** 0.06
15975 H 114.06521146726143 33.80490469135009 126.76552661221106 H 0.0 **** 0.06
15976 C 146.95924221755578 89.81189579248297 163.50370829833312 C 0.0 **** -0.24
15977 H 146.47082742773526 90.04893177297456 164.4485980313027 H 0.0 **** 0.06
15978 H 147.16966488737785 88.74273845913507 163.46114537607502 H 0.0 **** 0.06
15979 H 147.8924510476375 90.36899787726452 163.42735250845527 H 0.0 **** 0.06
15980 H 146.30342403873644 90.0870078581826 162.67694377540306 H 0.0 **** 0.06
15981 C 116.86874726298186 109.8214075894845 11.49912664299569 C 0.0 **** -0.24
15982 H 116.91726683888163 108.83513823213804 11.960418614381382 H 0.0 **** 0.06
15983 H 115.82775817651952 110.1389127455767 11.429091598059927 H 0.0 **** 0.06
15984 H 117.3036656049668 109.7764105238291 10.50091976500272 H 0.0 **** 0.06
15985 H 117.42762836528402 110.53356215383857 12.106882752878647 H 0.0 **** 0.06
15986 C 191.70379034889243 28.113525240395376 57.89342029657881 C 0.0 **** -0.24
15987 H 192.51205534565085 28.498824941196176 58.51458251923458 H 0.0 **** 0.06
15988 H 191.40304991584364 27.130875999952536 58.257387813646815 H 0.0 **** 0.06
15989 H 192.04818949214183 28.029533013872737 56.861834499954256 H 0.0 **** 0.06
15990 H 190.85400736278535 28.794238320583958 57.938865315459665 H 0.0 **** 0.06
15991 C 19.90291151860258 149.9093333971056 60.70016314817596 C 0.0 **** -0.24
15992 H 19.67125512813024 148.85231057207537 60.83654781749024 H 0.0 **** 0.06
15993 H 19.57622836664605 150.22729833798581 59.709512290942044 H 0.0 **** 0.06
15994 H 20.97806997152817 150.0597166134404 60.793885374671106 H 0.0 **** 0.06
15995 H 19.386066913759663 150.4947326697198 61.46018618363371 H 0.0 **** 0.06
15996 C 119.78572565668014 111.86782641335043 174.53060378549822 C 0.0 **** -0.24
15997 H 120.46136340780726 112.1265958892451 175.34572504330413 H 0.0 **** 0.06
15998 H 118.927142737184 111.3262731374416 174.92906222255658 H 0.0 **** 0.06
15999 H 120.30948427015221 111.23923925358156 173.80957548772375 H 0.0 **** 0.06
16000 H 119.44449553167806 112.77801038936695 174.03869852355922 H 0.0 **** 0.06
16001 C 11.520843322730684 75.12802197093231 152.7665641949948 C 0.0 **** -0.24
16002 H 10.448960660509258 75.12319973481809 152.56981314064467 H 0.0 **** 0.06
16003 H 11.694077216196263 75.32565841769201 153.82512055534193 H 0.0 **** 0.06
16004 H 11.9960729038104 75.90537707912083 152.16862895300451 H 0.0 **** 0.06
16005 H 11.94230060960976 74.15782514293036 152.50376664979538 H 0.0 **** 0.06
16006 C 53.66606193184879 30.341830219321963 144.58530640103876 C 0.0 **** -0.24
16007 H 54.419885426911094 30.658733483603214 143.8658871203019 H 0.0 **** 0.06
16008 H 53.93011497019951 30.714454620092 145.57605247118204 H 0.0 **** 0.06
16009 H 53.619027133200916 29.25315025566303 144.607830684634 H 0.0 **** 0.06
16010 H 52.694554866990956 30.7412443660603 144.2937981684339 H 0.0 **** 0.06
16011 C 181.60233706674816 20.208372308900834 183.14348418356454 C 0.0 **** -0.24
16012 H 180.84877145834764 19.60210008926782 183.6464161447787 H 0.0 **** 0.06
16013 H 181.15112215988714 20.71111469711586 182.28746613289346 H 0.0 **** 0.06
16014 H 182.41519352317295 19.567510324410875 182.80241678089166 H 0.0 **** 0.06
16015 H 181.9921289039684 20.952216515177355 183.83802992912447 H 0.0 **** 0.06
16016 C 94.02294830426419 23.42462579187344 39.37593384765006 C 0.0 **** -0.24
16017 H 93.7204169132961 23.382100897777605 38.33013078292697 H 0.0 **** 0.06
16018 H 94.78883095042107 24.190184003218633 39.5015327600384 H 0.0 **** 0.06
16019 H 94.42367481763577 22.4566805210184 39.67830433941384 H 0.0 **** 0.06
16020 H 93.1598983865641 23.668879500097745 39.994481846278745 H 0.0 **** 0.06
16021 C 168.23591933281753 171.71002393513203 74.55731035434184 C 0.0 **** -0.24
16022 H 168.7906888733426 172.05470289977887 73.68388154801607 H 0.0 **** 0.06
16023 H 168.18321700516532 170.6207648216469 74.54609614489618 H 0.0 **** 0.06
16024 H 167.2272456797504 172.12324977140466 74.53296766283495 H 0.0 **** 0.06
16025 H 168.7431514046425 172.04020974495927 75.46342492899004 H 0.0 **** 0.06
16026 C 149.5138823906246 5.540560452839351 130.78524250674542 C 0.0 **** -0.24
16027 H 149.7683630573693 4.865943660280372 129.96708391537504 H 0.0 **** 0.06
16028 H 148.43528115720682 5.528927968528691 130.94224488980132 H 0.0 **** 0.06
16029 H 149.83532212433659 6.551746565458892 130.53478325803263 H 0.0 **** 0.06
16030 H 150.01763888825315 5.213631191361557 131.69488987338042 H 0.0 **** 0.06
16031 C 53.84730577910585 130.1690413649343 50.223108699002296 C 0.0 **** -0.24
16032 H 53.51163153370322 131.0091158419474 50.83116491110832 H 0.0 **** 0.06
16033 H 53.85766155650771 129.2637498346446 50.83008702231564 H 0.0 **** 0.06
16034 H 54.85154805110511 130.3696160245256 49.850000210831126 H 0.0 **** 0.06
16035 H 53.16615759031683 130.03585817611724 49.38233341612323 H 0.0 **** 0.06
16036 C 169.8871398690686 75.52920702872018 124.96555754882786 C 0.0 **** -0.24
16037 H 170.55992678225235 75.91155809277132 125.73351726540906 H 0.0 **** 0.06
16038 H 168.88368144303152 75.92109461228256 125.1347793377567 H 0.0 **** 0.06
16039 H 169.86459901060437 74.44030305601069 125.01224519904301 H 0.0 **** 0.06
16040 H 170.24000791802936 75.84480205645201 123.98369268929005 H 0.0 **** 0.06
16041 C 29.573619963116386 193.98989026282845 67.22788077475533 C 0.0 **** -0.24
16042 H 28.760750825933883 194.59326175131588 66.82384947150766 H 0.0 **** 0.06
16043 H 30.291957796625525 194.63841662567648 67.73036959785779 H 0.0 **** 0.06
16044 H 30.069925635341562 193.4587761489699 66.4165250390918 H 0.0 **** 0.06
16045 H 29.17115268484808 193.27028238208626 67.9411495041231 H 0.0 **** 0.06
16046 C 124.5737774684408 45.783478591927064 185.64969051726678 C 0.0 **** -0.24
16047 H 125.61710536208238 45.724467620399864 185.33884762202803 H 0.0 **** 0.06
16048 H 123.94250845254231 45.32109958732762 184.8904851559427 H 0.0 **** 0.06
16049 H 124.28924633807384 46.82890613892032 185.770991682694 H 0.0 **** 0.06
16050 H 124.44620185238693 45.25922367623565 186.5970410007087 H 0.0 **** 0.06
16051 C 21.973701844004125 124.5535309345102 170.5694358479097 C 0.0 **** -0.24
16052 H 22.2469050739182 124.28929716350365 171.59150493216796 H 0.0 **** 0.06
16053 H 22.38126889503495 123.8139387345343 169.8811952428452 H 0.0 **** 0.06
16054 H 22.377261796925765 125.5376747092206 170.32859750888676 H 0.0 **** 0.06
16055 H 20.88722148269717 124.5752897850146 170.4786962103102 H 0.0 **** 0.06
16056 C 153.92375534544524 45.53724220655869 8.51141239273575 C 0.0 **** -0.24
16057 H 152.92079064469715 45.12932630933352 8.391449555151269 H 0.0 **** 0.06
16058 H 154.42337314744594 45.564320636367285 7.542885935058898 H 0.0 **** 0.06
16059 H 154.49254339894992 44.907924466190195 9.196248887174285 H 0.0 **** 0.06
16060 H 153.85963479448188 46.54851228739359 8.915179773454149 H 0.0 **** 0.06
16061 C 136.45796833283873 96.47814998439998 187.94236844241016 C 0.0 **** -0.24
16062 H 137.44231482302806 96.36394507632372 188.39687357809112 H 0.0 **** 0.06
16063 H 135.7762823489425 96.93068969586477 188.66322261158308 H 0.0 **** 0.06
16064 H 136.07846805998534 95.50004102737694 187.64643416323543 H 0.0 **** 0.06
16065 H 136.5361165492047 97.11857075054075 187.06387610972618 H 0.0 **** 0.06
16066 C 7.487831256809763 191.74266048459407 155.59913801349717 C 0.0 **** -0.24
16067 H 6.630110565413922 191.4989409885057 154.97121864570713 H 0.0 **** 0.06
16068 H 7.343523075725898 191.31565123950753 156.5917386092237 H 0.0 **** 0.06
16069 H 7.5833538143594055 192.82479706421918 155.6791787083459 H 0.0 **** 0.06
16070 H 8.392823969762773 191.32915077046826 155.1532797366155 H 0.0 **** 0.06
16071 C 104.12370064657347 171.8252956047911 34.09353205775986 C 0.0 **** -0.24
16072 H 105.10372165985063 172.0228015303579 34.52956982808783 H 0.0 **** 0.06
16073 H 103.68063218719954 172.76189923679118 33.75708201747847 H 0.0 **** 0.06
16074 H 103.47941347296444 171.36657517336195 34.84396346600903 H 0.0 **** 0.06
16075 H 104.2334950120212 171.14832359211837 33.24641885968862 H 0.0 **** 0.06
16076 C 181.2741618403239 36.85448044782953 130.15710982613354 C 0.0 **** -0.24
16077 H 181.19845847773382 36.433020061467346 129.15428888221044 H 0.0 **** 0.06
16078 H 182.3103736713527 37.12772549041193 130.3573069249367 H 0.0 **** 0.06
16079 H 180.94498207576044 36.11580623908932 130.887292514256 H 0.0 **** 0.06
16080 H 180.64422915279434 37.741377536919515 130.22689555922665 H 0.0 **** 0.06
16081 C 40.810240457143365 160.65931033681267 95.49857569513802 C 0.0 **** -0.24
16082 H 40.7720957396332 161.61285726572845 94.9728876749474 H 0.0 **** 0.06
16083 H 41.65745441594119 160.077256188515 95.13560164198083 H 0.0 **** 0.06
16084 H 39.88708121993973 160.10797733434023 95.31932550621423 H 0.0 **** 0.06
16085 H 40.924396954510726 160.8392612136509 96.5682152089496 H 0.0 **** 0.06
16086 C 20.5272375721147 92.59120385961634 99.31888943781121 C 0.0 **** -0.24
16087 H 20.03128161470687 91.69804777979778 98.93768134823065 H 0.0 **** 0.06
16088 H 20.614190780410723 93.32658419343716 98.5192085134747 H 0.0 **** 0.06
16089 H 21.520563556592435 92.32757572800077 99.68205245728848 H 0.0 **** 0.06
16090 H 19.940183318568643 93.0100541304974 100.13676012153829 H 0.0 **** 0.06
16091 C 197.46702454178413 151.43316951226467 13.593261650720308 C 0.0 **** -0.24
16092 H 198.04564799709806 150.63434499000152 13.128556390724555 H 0.0 **** 0.06
16093 H 198.02239759876448 151.84008585290525 14.437439067123648 H 0.0 **** 0.06
16094 H 196.51402207287322 151.03435549185744 13.942275081372713 H 0.0 **** 0.06
16095 H 197.2848246229845 152.22135881589986 12.862743688300469 H 0.0 **** 0.06
16096 C 78.87891315523609 85.8086711248963 150.4421303759953 C 0.0 **** -0.24
16097 H 78.78179991558 86.79387862216208 150.89871979525995 H 0.0 **** 0.06
16098 H 77.89989029250603 85.46597803191344 150.10751065732666 H 0.0 **** 0.06
16099 H 79.28053594181245 85.10763679111574 151.17360947769112 H 0.0 **** 0.06
16100 H 79.55388688754601 85.87047857260177 149.58769137166314 H 0.0 **** 0.06
16101 C 57.13758113212175 109.04262263457105 103.18793378822892 C 0.0 **** -0.24
16102 H 56.83141124962499 108.03204339144759 103.45744681004669 H 0.0 **** 0.06
16103 H 58.225254085674536 109.0881271910581 103.12415615202147 H 0.0 **** 0.06
16104 H 56.789409220373614 109.74225494987462 103.94684919487693 H 0.0 **** 0.06
16105 H 56.705170834161265 109.30782237211434 102.222977766811 H 0.0 **** 0.06
16106 C 125.68935947889264 2.1376336691569193 83.69414334607296 C 0.0 **** -0.24
16107 H 126.50686765365947 2.843775976183238 83.83772293126128 H 0.0 **** 0.06
16108 H 125.80748366669144 1.6352222009571946 82.73426415192708 H 0.0 **** 0.06
16109 H 124.73948069141318 2.6723603595355954 83.7098068544729 H 0.0 **** 0.06
16110 H 125.70297155200137 1.3991151446786958 84.49555009504655 H 0.0 **** 0.06
16111 C 189.4395214517801 6.695145649754501 110.78978379598973 C 0.0 **** -0.24
16112 H 189.78184518679268 5.810890421063789 110.25173561614801 H 0.0 **** 0.06
16113 H 189.26866369108512 7.506331595917366 110.08191680794238 H 0.0 **** 0.06
16114 H 190.19725703592493 6.9964386097316265 111.51302304910953 H 0.0 **** 0.06
16115 H 188.51020782495533 6.465372691275853 111.31085120926437 H 0.0 **** 0.06
16116 C 160.1944506971936 54.965483590891026 9.376279273186356 C 0.0 **** -0.24
16117 H 159.62348944352993 54.48106910289249 10.169207744612606 H 0.0 **** 0.06
16118 H 160.98107757715985 54.29318395573344 9.034762041563596 H 0.0 **** 0.06
16119 H 160.64043367307124 55.88340030240303 9.758458244322014 H 0.0 **** 0.06
16120 H 159.53145737699606 55.20265184912245 8.54481927049136 H 0.0 **** 0.06
16121 C 71.62003867420134 44.1897032505841 34.214844652686935 C 0.0 **** -0.24
16122 H 70.93710235017909 44.54809399975116 34.98554611644447 H 0.0 **** 0.06
16123 H 71.81835393272411 44.99183920434484 33.50392999303787 H 0.0 **** 0.06
16124 H 71.16852412607278 43.345491951475694 33.69515094865969 H 0.0 **** 0.06
16125 H 72.55552852745302 43.87371346149453 34.67828386765423 H 0.0 **** 0.06
16126 C 8.980123882086389 122.43910198627546 158.0020992588912 C 0.0 **** -0.24
16127 H 8.463132889922264 123.3064394218973 157.59201175483184 H 0.0 **** 0.06
16128 H 9.834634165784024 122.19351176541059 157.37226016730068 H 0.0 **** 0.06
16129 H 8.295967247397755 121.59071100638332 158.03419510490184 H 0.0 **** 0.06
16130 H 9.324012456624416 122.66628099389263 159.01100610384543 H 0.0 **** 0.06
16131 C 167.33045384541057 197.6602453777814 8.383025039539277 C 0.0 **** -0.24
16132 H 167.20823261131963 196.6112894757742 8.652420959757599 H 0.0 **** 0.06
16133 H 168.00965994234002 198.13921032283213 9.088043007145288 H 0.0 **** 0.06
16134 H 166.36115200501894 198.15818262313954 8.416761304136003 H 0.0 **** 0.06
16135 H 167.74134607295636 197.73162960236237 7.375597340854156 H 0.0 **** 0.06
16136 C 101.04790951664828 36.752058662321815 190.7791310855049 C 0.0 **** -0.24
16137 H 100.67483389416486 35.80870007627266 191.17906465626984 H 0.0 **** 0.06
16138 H 102.05193046069866 36.93668065882167 191.16077927178372 H 0.0 **** 0.06
16139 H 100.38670215218536 37.5623480239301 191.0872636334621 H 0.0 **** 0.06
16140 H 101.0759467225306 36.69989399258054 189.69133403793057 H 0.0 **** 0.06
16141 C 171.49988652796492 64.78086783101074 186.87871719186262 C 0.0 **** -0.24
16142 H 172.37501228981066 65.41631847739681 187.013624766468 H 0.0 **** 0.06
16143 H 170.78420208045344 64.9740827778294 187.67781821061706 H 0.0 **** 0.06
16144 H 171.8032495894417 63.734039635961324 186.90695329839798 H 0.0 **** 0.06
16145 H 171.0370821521539 64.99903043285542 185.9164724919673 H 0.0 **** 0.06
16146 C 68.85950656533214 4.295957641305989 106.4623892513213 C 0.0 **** -0.24
16147 H 67.89462500436969 4.359972516868446 105.96083036137253 H 0.0 **** 0.06
16148 H 68.98412299441077 5.154455982504231 107.12240972652367 H 0.0 **** 0.06
16149 H 69.65587041870333 4.292085518736684 105.71732393294712 H 0.0 **** 0.06
16150 H 68.90504443389852 3.3777960277201586 107.04754668591497 H 0.0 **** 0.06
16151 C 7.038612803313924 66.3699545646175 104.95368992393327 C 0.0 **** -0.24
16152 H 8.003156317187404 66.4434289100981 104.45154153125344 H 0.0 **** 0.06
16153 H 7.188403664366874 66.40301586036148 106.03304915079491 H 0.0 **** 0.06
16154 H 6.558397403100166 65.43054213713967 104.6812250154608 H 0.0 **** 0.06
16155 H 6.406186065967155 67.20398436904154 104.64804567206986 H 0.0 **** 0.06
16156 C 73.32925389705818 153.29956797633758 84.76993492843974 C 0.0 **** -0.24
16157 H 72.83624243058135 153.63048786519343 85.68429121267275 H 0.0 **** 0.06
16158 H 74.150805094084 152.6280795448226 85.02362104292445 H 0.0 **** 0.06
16159 H 73.71925109430664 154.16513632645703 84.23538813261405 H 0.0 **** 0.06
16160 H 72.61154266932395 152.7747724359104 84.13931624906712 H 0.0 **** 0.06
16161 C 46.755625802170485 171.41928933757305 123.79006455056407 C 0.0 **** -0.24
16162 H 47.445555166345954 171.09136434596155 123.01356128597962 H 0.0 **** 0.06
16163 H 47.311785676065966 171.63909595475505 124.70187206748975 H 0.0 **** 0.06
16164 H 46.028916977035834 170.63081378442524 123.98822682942819 H 0.0 **** 0.06
16165 H 46.23453541514418 172.3176344896718 123.45669461639463 H 0.0 **** 0.06
16166 C 37.382051444126105 106.62667261522614 137.9150991918242 C 0.0 **** -0.24
16167 H 36.308745645729914 106.79455574959087 137.83075121622966 H 0.0 **** 0.06
16168 H 37.825957753261605 106.6077297923135 136.91976003319098 H 0.0 **** 0.06
16169 H 37.56218479081302 105.67385956889382 138.41304995425148 H 0.0 **** 0.06
16170 H 37.82954123693138 107.4316204219408 138.49766556973003 H 0.0 **** 0.06
16171 C 183.75747387365266 9.257679372729399 179.58759377315573 C 0.0 **** -0.24
16172 H 182.72981070808248 9.067449348033136 179.27661361734184 H 0.0 **** 0.06
16173 H 183.79238901816663 9.38024318143269 180.66953171052938 H 0.0 **** 0.06
16174 H 184.1186076095397 10.167398742817397 179.10634040178513 H 0.0 **** 0.06
16175 H 184.38687729869375 8.41791296783822 179.2961913769276 H 0.0 **** 0.06
16176 C 7.700728328858702 102.74683321233104 141.12457112832033 C 0.0 **** -0.24
16177 H 7.230550347195901 103.72543999083342 141.0222571760065 H 0.0 **** 0.06
16178 H 7.093201973046007 102.11847538358523 141.77608387157014 H 0.0 **** 0.06
16179 H 8.694765836892543 102.86416702877509 141.55575077047152 H 0.0 **** 0.06
16180 H 7.783410215719982 102.27973121160895 140.14329894140744 H 0.0 **** 0.06
16181 C 149.56031317815234 177.88829787183715 38.428990587339925 C 0.0 **** -0.24
16182 H 149.2397238700496 176.9264233306388 38.03125888995328 H 0.0 **** 0.06
16183 H 149.0472037972919 178.69065898156498 37.89670011699076 H 0.0 **** 0.06
16184 H 150.6367981637128 177.99571575610736 38.29845652624057 H 0.0 **** 0.06
16185 H 149.31586207151304 177.9418006041788 39.490045159014 H 0.0 **** 0.06
16186 C 118.0721205875775 138.10837082739553 78.4985153313242 C 0.0 **** -0.24
16187 H 118.69783857957816 137.41613825869777 77.93535838845251 H 0.0 **** 0.06
16188 H 118.31736847538156 139.13175846768 78.2161434592648 H 0.0 **** 0.06
16189 H 118.25010149669686 137.97202762362159 79.56515866758235 H 0.0 **** 0.06
16190 H 117.0231021372723 137.91073961806526 78.27718551719987 H 0.0 **** 0.06
16191 C 166.40453637423468 178.06726204719865 87.21867715384576 C 0.0 **** -0.24
16192 H 167.18449028658193 177.98557338729347 87.97480777102132 H 0.0 **** 0.06
16193 H 166.85254271860143 178.32922723199093 86.26016776989317 H 0.0 **** 0.06
16194 H 165.695042171414 178.84188254904853 87.51178253275606 H 0.0 **** 0.06
16195 H 165.88477815212377 177.11344073338103 87.1283667241996 H 0.0 **** 0.06
16196 C 29.99107958239931 169.09976866852892 100.33294676681237 C 0.0 **** -0.24
16197 H 29.497892831037163 169.20378160113071 99.3656164939847 H 0.0 **** 0.06
16198 H 31.026756173989057 168.79520330532188 100.1803668477391 H 0.0 **** 0.06
16199 H 29.473321211498842 168.34605128158177 100.92524992246558 H 0.0 **** 0.06
16200 H 29.966402391748346 170.0547343343663 100.85731141400652 H 0.0 **** 0.06
16201 C 150.9594105228831 130.40957586228635 28.368740773708566 C 0.0 **** -0.24
16202 H 151.16172350359963 129.9830297131078 27.385384500111257 H 0.0 **** 0.06
16203 H 151.8003421195353 130.20790397668088 29.03174391675867 H 0.0 **** 0.06
16204 H 150.05617417557858 129.95869359134034 28.780280528160915 H 0.0 **** 0.06
16205 H 150.81892257388097 131.48645028383606 28.27458504017403 H 0.0 **** 0.06
16206 C 31.908178813809442 181.43578080879286 100.70162049526834 C 0.0 **** -0.24
16207 H 31.19630148672681 182.0050182623105 101.30037512037896 H 0.0 **** 0.06
16208 H 32.80464291638779 182.0329492431448 100.53775581121039 H 0.0 **** 0.06
16209 H 31.455799147635602 181.1867857458941 99.74128211960513 H 0.0 **** 0.06
16210 H 32.1725097579595 180.51833033703295 101.22695225181761 H 0.0 **** 0.06
16211 C 15.808812196671653 105.42834103253313 135.6115660954381 C 0.0 **** -0.24
16212 H 16.810747273915794 105.3388588391642 135.19091096809382 H 0.0 **** 0.06
16213 H 15.288395948247697 106.25933673015604 135.13595306967875 H 0.0 **** 0.06
16214 H 15.880588392807397 105.61000316394271 136.68406725474017 H 0.0 **** 0.06
16215 H 15.257882592709322 104.5045881138951 135.43560077859445 H 0.0 **** 0.06
16216 C 149.74346145292924 179.00048997729175 46.406545364231135 C 0.0 **** -0.24
16217 H 150.42662452357308 179.02808780831035 47.25479841449659 H 0.0 **** 0.06
16218 H 148.7162760186111 178.9558309897507 46.76843393816648 H 0.0 **** 0.06
16219 H 149.95300063970515 178.1190411770879 45.800967943145594 H 0.0 **** 0.06
16220 H 149.87756234257867 179.89680663164017 45.80218946191118 H 0.0 **** 0.06
16221 C 86.86366418456905 170.68640617913348 100.2723808237262 C 0.0 **** -0.24
16222 H 86.47769795164271 170.51510186719895 99.26701093990039 H 0.0 **** 0.06
16223 H 87.5401811495164 169.87610066493562 100.54368959118747 H 0.0 **** 0.06
16224 H 86.03486250848454 170.72009138996245 100.97884579088205 H 0.0 **** 0.06
16225 H 87.40129286509995 171.6335145752638 100.29775285422005 H 0.0 **** 0.06
16226 C 91.3552440299101 190.7410223857436 16.743614297924097 C 0.0 **** -0.24
16227 H 91.47083060507953 189.89796782089311 17.425831607396844 H 0.0 **** 0.06
16228 H 90.94255832855012 191.59270273543626 17.285686992904346 H 0.0 **** 0.06
16229 H 90.68031738372355 190.4632634384311 15.934751734473537 H 0.0 **** 0.06
16230 H 92.32676908889152 191.00971703724707 16.33054421220396 H 0.0 **** 0.06
16231 C 55.37877422410179 17.91533264402831 6.31349695606508 C 0.0 **** -0.24
16232 H 55.87525245398945 16.95565008355358 6.459628569885865 H 0.0 **** 0.06
16233 H 54.44043053882194 17.759553818999933 5.779741579721758 H 0.0 **** 0.06
16234 H 56.02392343474486 18.573258749426657 5.730536892253895 H 0.0 **** 0.06
16235 H 55.17522253473243 18.370444687516937 7.282332546098758 H 0.0 **** 0.06
16236 C 136.29786518281063 153.18354672572775 35.27646676974422 C 0.0 **** -0.24
16237 H 135.87457389845363 153.62524021245162 34.374522742898534 H 0.0 **** 0.06
16238 H 136.5107551685621 152.12894726031328 35.098173389218005 H 0.0 **** 0.06
16239 H 135.58394617643992 153.27692382791128 36.095173105341985 H 0.0 **** 0.06
16240 H 137.220195907063 153.70221993884786 35.53744149918248 H 0.0 **** 0.06
16241 C 56.596956550916616 151.16774608005386 80.58246232447726 C 0.0 **** -0.24
16242 H 57.2200462911224 151.96849336830815 80.97991625049045 H 0.0 **** 0.06
16243 H 55.82997213088845 150.9088366185913 81.3122591922567 H 0.0 **** 0.06
16244 H 57.21535183654038 150.2937191657087 80.37897301688886 H 0.0 **** 0.06
16245 H 56.12271524981247 151.5008529480376 79.65900160690978 H 0.0 **** 0.06
16246 C 128.67982949819614 151.33214397526956 170.8546726780967 C 0.0 **** -0.24
16247 H 129.58124806241597 150.82720071660253 170.5074615615799 H 0.0 **** 0.06
16248 H 127.9423951597546 150.5894333945445 171.16064864542497 H 0.0 **** 0.06
16249 H 128.27050155435157 151.93974263715995 170.04710893466432 H 0.0 **** 0.06
16250 H 128.92561175425865 151.97241705785333 171.70259966279943 H 0.0 **** 0.06
16251 C 190.22272828125196 100.4047635068138 70.47689295335587 C 0.0 **** -0.24
16252 H 190.57818885997506 99.38128193173372 70.35541893954792 H 0.0 **** 0.06
16253 H 190.4325080522823 100.74356021154662 71.49182444838621 H 0.0 **** 0.06
16254 H 189.14821717538797 100.43876077068995 70.29654674448501 H 0.0 **** 0.06
16255 H 190.731561965135 101.05313436636905 69.76444634730879 H 0.0 **** 0.06
16256 C 32.251119203012124 70.51466340437884 38.39469762623105 C 0.0 **** -0.24
16257 H 31.19674676022447 70.24216616693862 38.368417246692815 H 0.0 **** 0.06
16258 H 32.66266711265307 70.47175257954898 37.3861071893253 H 0.0 **** 0.06
16259 H 32.79046608942993 69.81962065999075 39.03743177031191 H 0.0 **** 0.06
16260 H 32.35395404726147 71.52714284420904 38.78614759595911 H 0.0 **** 0.06
16261 C 28.381726859648097 35.16078345285726 21.14485184282279 C 0.0 **** -0.24
16262 H 27.326975037842658 35.33430682622736 20.929132260482362 H 0.0 **** 0.06
16263 H 28.686495240881584 34.20400771044116 20.719835239585194 H 0.0 **** 0.06
16264 H 28.532433985822223 35.145233421550756 22.224167939306085 H 0.0 **** 0.06
16265 H 28.978412558905234 35.96035462502121 20.705436542171668 H 0.0 **** 0.06
16266 C 9.92139852156064 82.54651166320119 6.433374813329749 C 0.0 **** -0.24
16267 H 9.90568574560065 83.04626941799523 5.464635950035245 H 0.0 **** 0.06
16268 H 10.834921736440286 82.81388623126185 6.964834940130572 H 0.0 **** 0.06
16269 H 9.889230318943738 81.46784301980546 6.285774647742642 H 0.0 **** 0.06
16270 H 9.055472152697071 82.85971460963003 7.017877295846802 H 0.0 **** 0.06
16271 C 168.63056697086674 163.89605875097462 59.99285430923244 C 0.0 **** -0.24
16272 H 168.6451081108702 163.72690411621832 58.9162620269706 H 0.0 **** 0.06
16273 H 167.96746404529503 164.7308931269755 60.22011134729466 H 0.0 **** 0.06
16274 H 169.63925447605456 164.12774757237818 60.33744323461951 H 0.0 **** 0.06
16275 H 168.27266568380128 162.99851397437607 60.49745586430899 H 0.0 **** 0.06
16276 C 129.76800968249677 186.44015338159787 185.65195224003355 C 0.0 **** -0.24
16277 H 129.45555016770913 185.5656534848031 185.08110841943324 H 0.0 **** 0.06
16278 H 129.4802123774607 186.31379994938476 186.69635984037683 H 0.0 **** 0.06
16279 H 129.28501785001185 187.32992350765963 185.2470587820323 H 0.0 **** 0.06
16280 H 130.8503192171827 186.55093047139331 185.58343804147114 H 0.0 **** 0.06
16281 C 19.315667474796328 11.91861996470675 35.11711214881359 C 0.0 **** -0.24
16282 H 18.27861094674448 12.24853043338721 35.04727271548984 H 0.0 **** 0.06
16283 H 19.95586046668447 12.61544244456396 34.57724918453471 H 0.0 **** 0.06
16284 H 19.41078541794782 10.923919050743692 34.68070595175561 H 0.0 **** 0.06
16285 H 19.616093820484068 11.886136206730981 36.164968782532696 H 0.0 **** 0.06
16286 C 74.98867075085995 113.64525591153654 40.19829838126094 C 0.0 **** -0.24
16287 H 74.3215142449049 114.24461976816156 39.57952554161572 H 0.0 **** 0.06
16288 H 75.62826458941626 113.03636462534655 39.558536841546115 H 0.0 **** 0.06
16289 H 74.39881991613842 112.99732767852055 40.84730816413915 H 0.0 **** 0.06
16290 H 75.60686656416189 114.3050251290581 40.808011610857136 H 0.0 **** 0.06
16291 C 144.5558958487609 133.5080930710085 141.74595881946928 C 0.0 **** -0.24
16292 H 144.8385346267085 133.0642573263698 142.70055760220268 H 0.0 **** 0.06
16293 H 144.5758585539457 134.5944033068623 141.8314528964585 H 0.0 **** 0.06
16294 H 143.55175813763537 133.1825171959476 141.47788336935793 H 0.0 **** 0.06
16295 H 145.25864664530334 133.19109271407893 140.97581613120724 H 0.0 **** 0.06
16296 C 167.55943992589454 189.5881845788726 79.56708101036685 C 0.0 **** -0.24
16297 H 168.26773163072093 190.41488127506676 79.5062769740606 H 0.0 **** 0.06
16298 H 168.0918153695205 188.64369950721442 79.45305896482887 H 0.0 **** 0.06
16299 H 166.81838310552715 189.68618969241095 78.77424972136629 H 0.0 **** 0.06
16300 H 167.06036588629988 189.60964665454557 80.5361146395964 H 0.0 **** 0.06
16301 C 79.49194316767927 87.61617155321505 143.16825814925713 C 0.0 **** -0.24
16302 H 78.775210635328 87.89727357487749 143.94043159590163 H 0.0 **** 0.06
16303 H 79.40907779361191 88.30556024350375 142.32786999386178 H 0.0 **** 0.06
16304 H 79.28303071976543 86.601826824552 142.8298412163645 H 0.0 **** 0.06
16305 H 80.50203796082192 87.66243234726312 143.5772766882894 H 0.0 **** 0.06
16306 C 85.30399336926519 67.18899957161409 176.03304231909252 C 0.0 **** -0.24
16307 H 85.60358079102696 66.30076127463502 175.47624091752326 H 0.0 **** 0.06
16308 H 85.41963215193783 67.00376950090634 177.10162605776645 H 0.0 **** 0.06
16309 H 84.2612898962887 67.41962477396638 175.81438009415172 H 0.0 **** 0.06
16310 H 85.93136144608513 68.03053614286696 175.73879041457872 H 0.0 **** 0.06
16311 C 32.123025611164906 101.01436566588174 111.92145707771505 C 0.0 **** -0.24
16312 H 32.63798289145038 101.86105276824372 111.4687059213083 H 0.0 **** 0.06
16313 H 32.58540605483795 100.0851904423092 111.58617593688857 H 0.0 **** 0.06
16314 H 31.073874224911478 101.02627543874021 111.62592668934013 H 0.0 **** 0.06
16315 H 32.19455902893763 101.08406150810626 113.00705513897057 H 0.0 **** 0.06
16316 C 113.65576897719981 100.48105555838742 173.66351060787986 C 0.0 **** -0.24
16317 H 113.06682891393893 101.39065956386199 173.551810978161 H 0.0 **** 0.06
16318 H 113.00883483587043 99.61166033869233 173.54211920446102 H 0.0 **** 0.06
16319 H 114.10884281580431 100.4611706168383 174.65504294898471 H 0.0 **** 0.06
16320 H 114.43940660966814 100.4603926951973 172.90615746084526 H 0.0 **** 0.06
16321 C 20.464136921027944 31.659323319240173 139.8386990846855 C 0.0 **** -0.24
16322 H 20.417000285411632 30.69994601170299 139.32418476469402 H 0.0 **** 0.06
16323 H 20.500711034540416 31.492914637634357 140.91552877308686 H 0.0 **** 0.06
16324 H 19.5807334735033 32.248025000140444 139.59091819789487 H 0.0 **** 0.06
16325 H 21.358701460510645 32.19658272442672 139.5233828890479 H 0.0 **** 0.06
16326 C 176.91156307521476 3.911726412006203 165.68983691762622 C 0.0 **** -0.24
16327 H 176.78128921866588 3.7574620480722274 166.76103153735932 H 0.0 **** 0.06
16328 H 177.13170765981928 2.9584128114017005 165.21008676536985 H 0.0 **** 0.06
16329 H 177.737312268878 4.602809564565376 165.52061508817258 H 0.0 **** 0.06
16330 H 175.99634524940566 4.328358913198343 165.2685194769169 H 0.0 **** 0.06
16331 C 142.4439843949592 100.76461481441987 116.29203817459569 C 0.0 **** -0.24
16332 H 141.91457588794165 100.60391601110308 115.35218859194109 H 0.0 **** 0.06
16333 H 143.09960877667638 101.63069673714853 116.1945215877771 H 0.0 **** 0.06
16334 H 143.03819870109027 99.88314845883374 116.52883779968596 H 0.0 **** 0.06
16335 H 141.72249393570124 100.94245425941085 117.08947552692871 H 0.0 **** 0.06
16336 C 116.52758670150092 23.10023758315691 95.36098735950105 C 0.0 **** -0.24
16337 H 116.56451601630442 24.17183453306214 95.16438906342131 H 0.0 **** 0.06
16338 H 115.90555110321452 22.91199942536292 96.23639572461283 H 0.0 **** 0.06
16339 H 117.53669381345787 22.730387409473593 95.5454796087669 H 0.0 **** 0.06
16340 H 116.10495687657328 22.5864307927026 94.49750759839267 H 0.0 **** 0.06
16341 C 197.27463750787672 21.035750306196235 57.775307612345614 C 0.0 **** -0.24
16342 H 197.39541266575043 20.049858100451416 58.22475795716849 H 0.0 **** 0.06
16343 H 196.2155281345593 21.231991673761854 57.609439184312464 H 0.0 **** 0.06
16344 H 197.80462921425374 21.068218623550933 56.823197697693075 H 0.0 **** 0.06
16345 H 197.6840676564145 21.79307660558777 58.44517592097651 H 0.0 **** 0.06
16346 C 144.18607733040375 61.215248943612096 125.50153705476689 C 0.0 **** -0.24
16347 H 144.97650561732587 61.942435189851324 125.68895899011795 H 0.0 **** 0.06
16348 H 144.48615332284575 60.24321230797648 125.89439693394178 H 0.0 **** 0.06
16349 H 144.01264566900272 61.13628796312821 124.428712145167 H 0.0 **** 0.06
16350 H 143.27024683434004 61.53958449167578 125.99450724895448 H 0.0 **** 0.06
16351 C 104.10851517060732 134.25202817608536 71.35320685752102 C 0.0 **** -0.24
16352 H 105.1022050471903 134.3586959201597 71.79042321580503 H 0.0 **** 0.06
16353 H 103.89243637043162 133.19526753422736 71.19472471359933 H 0.0 **** 0.06
16354 H 104.07377162454793 134.7783508331232 70.39972953078984 H 0.0 **** 0.06
16355 H 103.36751437622752 134.67732980711503 72.03062773418883 H 0.0 **** 0.06
16356 C 38.426905783331094 6.240864546051974 195.91655338461345 C 0.0 **** -0.24
16357 H 37.64960258201482 6.835042623685489 196.39845675394452 H 0.0 **** 0.06
16358 H 38.11473481537462 5.197530074554692 195.8787230379893 H 0.0 **** 0.06
16359 H 39.35220811423001 6.3232358984852794 196.48692014650902 H 0.0 **** 0.06
16360 H 38.59014879989515 6.60972261478512 194.90407320262347 H 0.0 **** 0.06
16361 C 27.025583831625 16.51971136120406 30.256737037444793 C 0.0 **** -0.24
16362 H 28.056146775698352 16.442771891048196 29.90937551080708 H 0.0 **** 0.06
16363 H 26.9660924826634 17.260736410725485 31.05432361759489 H 0.0 **** 0.06
16364 H 26.696583330034144 15.552103472841125 30.634988693610097 H 0.0 **** 0.06
16365 H 26.386173428222122 16.823933400442556 29.42891704583377 H 0.0 **** 0.06
16366 C 54.84532989062387 72.04378453867287 120.66491124007348 C 0.0 **** -0.24
16367 H 53.90932766526666 72.050512429185 121.22401522485202 H 0.0 **** 0.06
16368 H 54.6657861828179 72.40606410264257 119.65247839513566 H 0.0 **** 0.06
16369 H 55.2358779700308 71.02641545301691 120.623389567777 H 0.0 **** 0.06
16370 H 55.56881948278459 72.69065191731067 121.16046353060764 H 0.0 **** 0.06
16371 C 114.8903537092769 134.55152352515466 74.46596102952302 C 0.0 **** -0.24
16372 H 115.1052923560355 135.1216007023193 75.36914265415012 H 0.0 **** 0.06
16373 H 115.80639008601813 134.42908239038002 73.88751118669951 H 0.0 **** 0.06
16374 H 114.15062506559681 135.08355193538432 73.86860772975399 H 0.0 **** 0.06
16375 H 114.49909698026454 133.57187704736646 74.73958234317558 H 0.0 **** 0.06
16376 C 87.17562228886223 91.69598599694393 5.655627436237154 C 0.0 **** -0.24
16377 H 87.19784549020912 91.87007282052892 6.731327945591062 H 0.0 **** 0.06
16378 H 86.58952473100047 90.80133471425208 5.444782889004578 H 0.0 **** 0.06
16379 H 88.19308486607258 91.55933595167443 5.288979980985708 H 0.0 **** 0.06
16380 H 86.72115966260162 92.55299263441495 5.157857367360762 H 0.0 **** 0.06
16381 C 87.28836279398581 14.026135112923434 191.45204349902383 C 0.0 **** -0.24
16382 H 86.56705313102913 14.255446891995923 190.6679075716338 H 0.0 **** 0.06
16383 H 87.23935800409728 14.792705961477552 192.22528430459923 H 0.0 **** 0.06
16384 H 88.29157678878565 14.00245055205255 191.02523156434896 H 0.0 **** 0.06
16385 H 87.05551420799515 13.05464043963277 191.8868345932926 H 0.0 **** 0.06
16386 C 150.0176736245508 79.99243350900781 64.47771263479135 C 0.0 **** -0.24
16387 H 149.16642816012396 80.22246021671384 65.11833151642858 H 0.0 **** 0.06
16388 H 149.71121670410585 80.04938402123247 63.432597088063304 H 0.0 **** 0.06
16389 H 150.37697952492863 78.9874762950023 64.69731894673507 H 0.0 **** 0.06
16390 H 150.81592701034478 80.71130012648212 64.66216316601306 H 0.0 **** 0.06
16391 C 37.31018133213887 53.493346872853806 110.04249191928199 C 0.0 **** -0.24
16392 H 36.47087787964294 53.980221552543 110.53808290115151 H 0.0 **** 0.06
16393 H 38.183312739497524 53.5202318089206 110.69525408984893 H 0.0 **** 0.06
16394 H 37.53543170580879 54.01585839128627 109.11241897617148 H 0.0 **** 0.06
16395 H 37.05110300360623 52.45707573866525 109.82421170995619 H 0.0 **** 0.06
16396 C 126.3416090829146 0.9306387714286473 129.0660474463798 C 0.0 **** -0.24
16397 H 126.24148273203116 -0.15251818341788237 129.000553971228 H 0.0 **** 0.06
16398 H 126.20460035438978 1.245304966036386 130.10138483649092 H 0.0 **** 0.06
16399 H 125.58563688717885 1.4039321121586568 128.4398373177237 H 0.0 **** 0.06
16400 H 127.33408519291854 1.2250089290469006 128.7246311807712 H 0.0 **** 0.06
16401 C 57.14008789290477 68.06085544027195 100.49274020093841 C 0.0 **** -0.24
16402 H 56.408909001236495 68.78227994518687 100.12665712862812 H 0.0 **** 0.06
16403 H 57.32805878191378 67.31233477770081 99.72253538357316 H 0.0 **** 0.06
16404 H 56.75230365374513 67.57285961578708 101.38702099843724 H 0.0 **** 0.06
16405 H 58.06958098706325 68.57709958941473 100.73409525480398 H 0.0 **** 0.06
16406 C 74.40379913304446 169.59176254496415 129.33620279011814 C 0.0 **** -0.24
16407 H 75.03655378887902 168.8987772333249 129.8907734230071 H 0.0 **** 0.06
16408 H 73.35819295328793 169.31940649908563 129.47547790195398 H 0.0 **** 0.06
16409 H 74.65440828232602 169.54377339774643 128.27664355568194 H 0.0 **** 0.06
16410 H 74.56751958166001 170.60583533219685 129.7024304576869 H 0.0 **** 0.06
16411 C 147.14728938172254 161.690403692215 98.86996305412427 C 0.0 **** -0.24
16412 H 146.74368152326485 161.9210837622318 97.88427645315682 H 0.0 **** 0.06
16413 H 147.61130337367115 162.5825041773567 99.29063801463172 H 0.0 **** 0.06
16414 H 147.8926355141117 160.8995269238286 98.7808632159693 H 0.0 **** 0.06
16415 H 146.34073614088766 161.3579185735894 99.52421775988233 H 0.0 **** 0.06
16416 C 112.40914948220333 63.0252374833417 169.06300015698818 C 0.0 **** -0.24
16417 H 111.77081163607127 63.72107018677383 168.51863509292292 H 0.0 **** 0.06
16418 H 113.38123623427137 63.487393255422035 169.24035886715848 H 0.0 **** 0.06
16419 H 112.54006047700204 62.1166169538987 168.47546656355513 H 0.0 **** 0.06
16420 H 111.94417356741161 62.77718335964147 170.01712291235708 H 0.0 **** 0.06
16421 C 148.62629118503702 76.09104542962545 89.57560130868359 C 0.0 **** -0.24
16422 H 147.53839788148483 76.0328348912726 89.53345408974701 H 0.0 **** 0.06
16423 H 148.95001185850592 77.07580927743689 89.2378413591614 H 0.0 **** 0.06
16424 H 149.05639870194798 75.32585805640366 88.92949567726725 H 0.0 **** 0.06
16425 H 148.95929298604585 75.93045021293817 90.60108932112297 H 0.0 **** 0.06
16426 C 176.60568153840177 29.579827375789392 137.25349619233563 C 0.0 **** -0.24
16427 H 175.90349786653667 29.38683938189206 136.4422653904145 H 0.0 **** 0.06
16428 H 176.13278309322502 30.22051763518772 137.99884092330046 H 0.0 **** 0.06
16429 H 177.49145837502743 30.075811145118962 136.85566809486068 H 0.0 **** 0.06
16430 H 176.8945030250783 28.635276997196996 137.7154728510703 H 0.0 **** 0.06
16431 C 173.66493927026286 151.42079392375908 163.8029351651774 C 0.0 **** -0.24
16432 H 172.66479550726612 151.76123142865174 164.06800384523777 H 0.0 **** 0.06
16433 H 173.67493122511272 150.33255544057374 163.74197742260841 H 0.0 **** 0.06
16434 H 174.37379959986387 151.74905514382252 164.5640030440583 H 0.0 **** 0.06
16435 H 173.9475544732885 151.84234629097398 162.8382005202499 H 0.0 **** 0.06
16436 C 41.121186922067366 31.487959555093852 27.964323293634436 C 0.0 **** -0.24
16437 H 40.81662440308692 31.758155955602135 28.97518146797674 H 0.0 **** 0.06
16438 H 40.53595289887285 30.63421221407289 27.624642164838434 H 0.0 **** 0.06
16439 H 42.17976816305979 31.228618603841824 27.96173402869033 H 0.0 **** 0.06
16440 H 40.95296612304328 32.33300020456744 27.29676749512123 H 0.0 **** 0.06
16441 C 62.33645445080663 171.39144292458707 166.07599273473068 C 0.0 **** -0.24
16442 H 61.413633260368684 171.54933847304474 165.51816595166042 H 0.0 **** 0.06
16443 H 62.30087342852245 170.41974524102542 166.56843184959243 H 0.0 **** 0.06
16444 H 62.447313150018346 172.1755137411275 166.8244277463 H 0.0 **** 0.06
16445 H 63.18420185572111 171.42011456654325 165.39098691699752 H 0.0 **** 0.06
16446 C 130.53918907834986 26.276293728328724 78.50849151733243 C 0.0 **** -0.24
16447 H 131.50000782935876 26.36140783962591 78.000874931832 H 0.0 **** 0.06
16448 H 130.01856973563798 27.233283927276815 78.46318192353328 H 0.0 **** 0.06
16449 H 130.7022879152238 26.00000835461779 79.55047321395239 H 0.0 **** 0.06
16450 H 129.93675933424748 25.5107425615588 78.01901883473994 H 0.0 **** 0.06
16451 C 184.9100397830206 25.627142927551446 52.04580344584663 C 0.0 **** -0.24
16452 H 184.51334100243565 26.54370399416537 51.60815793847124 H 0.0 **** 0.06
16453 H 185.90846548968906 25.439631905683143 51.65008584681732 H 0.0 **** 0.06
16454 H 184.2567000399986 24.79190145585588 51.79545663440254 H 0.0 **** 0.06
16455 H 184.9621616218477 25.735466089297105 53.12906984192426 H 0.0 **** 0.06
16456 C 113.52526721482249 5.583172063233427 153.07702683231506 C 0.0 **** -0.24
16457 H 113.31779545230253 5.9213726271755505 152.06231578666234 H 0.0 **** 0.06
16458 H 114.59806182089264 5.427728389314197 153.19538941288448 H 0.0 **** 0.06
16459 H 112.99910871008362 4.647047367811709 153.2635702910695 H 0.0 **** 0.06
16460 H 113.18672838626969 6.338043754477766 153.78742101529855 H 0.0 **** 0.06
16461 C 88.9829089230791 65.56582512883686 114.5324291106019 C 0.0 **** -0.24
16462 H 87.9431382000638 65.41051657918088 114.24352983167361 H 0.0 **** 0.06
16463 H 89.02124064125121 66.17392497218377 115.43624321922147 H 0.0 **** 0.06
16464 H 89.51019649419436 66.07789518329749 113.7272125122658 H 0.0 **** 0.06
16465 H 89.45495447915891 64.60203337467786 114.72208174311041 H 0.0 **** 0.06
16466 C 140.90646234210658 17.90311957902101 108.18866485005091 C 0.0 **** -0.24
16467 H 139.84050440100555 18.087617615015105 108.32438087087613 H 0.0 **** 0.06
16468 H 141.24998899521427 17.188780890477545 108.93754092837173 H 0.0 **** 0.06
16469 H 141.4542172499731 18.838837107398106 108.30034721104491 H 0.0 **** 0.06
16470 H 141.0803177370426 17.49777062799882 107.19217290351284 H 0.0 **** 0.06
16471 C 95.95027935906393 90.75148369180482 79.3073550216584 C 0.0 **** -0.24
16472 H 94.9579613026919 90.63840163663954 79.74311297081601 H 0.0 **** 0.06
16473 H 96.6614630923882 90.13758705804719 79.85933625889328 H 0.0 **** 0.06
16474 H 96.25361702569026 91.79660499080498 79.36191136591333 H 0.0 **** 0.06
16475 H 95.92715914824205 90.43360796257704 78.26535639282417 H 0.0 **** 0.06
16476 C 10.750188520901077 56.44516832414351 121.23948201842848 C 0.0 **** -0.24
16477 H 11.31383394471868 55.513982866905735 121.1795806911577 H 0.0 **** 0.06
16478 H 9.992585042760368 56.461360554873124 120.45512273026532 H 0.0 **** 0.06
16479 H 11.427760680674737 57.28894167925665 121.1081915770545 H 0.0 **** 0.06
16480 H 10.26741020192344 56.515055522386916 122.21379795187832 H 0.0 **** 0.06
16481 C 44.927559419578756 80.86845713281946 77.82925527319374 C 0.0 **** -0.24
16482 H 44.182149125615865 80.84467232528101 78.62254803315497 H 0.0 **** 0.06
16483 H 45.20213773517156 79.84874246485901 77.55718827537447 H 0.0 **** 0.06
16484 H 45.81171140450158 81.4021004693337 78.17780761765785 H 0.0 **** 0.06
16485 H 44.515218508084445 81.37838658112304 76.9584593051811 H 0.0 **** 0.06
16486 C 104.07555463696161 88.4807733135271 85.66500752001798 C 0.0 **** -0.24
16487 H 104.243790102292 88.06161762501742 84.67286386885189 H 0.0 **** 0.06
16488 H 104.11871421697333 87.68418972578422 86.4073144013986 H 0.0 **** 0.06
16489 H 103.09552700563813 88.95539632101023 85.69707768851447 H 0.0 **** 0.06
16490 H 104.84608395794237 89.22149909043637 85.88165607813585 H 0.0 **** 0.06
16491 C 35.35629878425159 135.2884251073209 120.44104293897851 C 0.0 **** -0.24
16492 H 35.52075443940666 135.79626953718378 121.39110190727388 H 0.0 **** 0.06
16493 H 35.001450046076954 134.2746187932737 120.62761684447139 H 0.0 **** 0.06
16494 H 36.292674345362826 135.2492988079993 119.88326730972608 H 0.0 **** 0.06
16495 H 34.611041709174856 135.8341792151611 119.86235992665456 H 0.0 **** 0.06
16496 C 130.07033988012665 44.472716480434315 169.68599236458095 C 0.0 **** -0.24
16497 H 131.15223671329466 44.604050723731746 169.67665236920976 H 0.0 **** 0.06
16498 H 129.59618313595178 45.38855319936056 170.03905492478538 H 0.0 **** 0.06
16499 H 129.81077433204155 43.64873941143287 170.35023191918506 H 0.0 **** 0.06
16500 H 129.72332609795376 44.24913857656696 168.67731945810286 H 0.0 **** 0.06
16501 C 89.39312219396197 121.20476537227671 13.602338624310569 C 0.0 **** -0.24
16502 H 88.70035306483541 121.99737066498699 13.885194536876732 H 0.0 **** 0.06
16503 H 89.87326474113934 120.80548729577822 14.495854622651308 H 0.0 **** 0.06
16504 H 90.15190089106989 121.60809551917328 12.931178151327039 H 0.0 **** 0.06
16505 H 88.84689904797006 120.40882262578856 13.095908859279909 H 0.0 **** 0.06
16506 C 139.0206090473464 12.610134264936839 182.0407774069887 C 0.0 **** -0.24
16507 H 138.78836776264552 11.658461309090875 182.51970566081275 H 0.0 **** 0.06
16508 H 139.7166718095483 13.17007732969416 182.66590786803113 H 0.0 **** 0.06
16509 H 138.10325520571723 13.184929446014252 181.91387543746725 H 0.0 **** 0.06
16510 H 139.47290028251177 12.42684612489709 181.066342817279 H 0.0 **** 0.06
16511 C 22.274341165990336 186.3937680355211 45.71520866613986 C 0.0 **** -0.24
16512 H 21.860034440963886 185.40055808439806 45.88799353260441 H 0.0 **** 0.06
16513 H 23.302418524243308 186.30314085804997 45.365432552802986 H 0.0 **** 0.06
16514 H 22.254713204782092 186.96231617249651 46.64507663816738 H 0.0 **** 0.06
16515 H 21.677240535894384 186.90955684848558 44.9623026633096 H 0.0 **** 0.06
16516 C 72.95388754315974 154.01283852069423 135.14987843703875 C 0.0 **** -0.24
16517 H 72.02890145051222 153.52066433014994 135.4523350506463 H 0.0 **** 0.06
16518 H 73.80376382277917 153.38792811772944 135.42336695426866 H 0.0 **** 0.06
16519 H 73.03314019256541 154.97602499383407 135.654117984687 H 0.0 **** 0.06
16520 H 72.94685526185252 154.16733822662076 134.0708292844149 H 0.0 **** 0.06
16521 C 24.0538386265181 148.04694352496162 114.0427143399223 C 0.0 **** -0.24
16522 H 24.387774426307885 147.83649212449507 113.02670067285908 H 0.0 **** 0.06
16523 H 24.738850272411796 148.7535580045708 114.51129806224156 H 0.0 **** 0.06
16524 H 24.037099733902835 147.12051158657823 114.61831263175344 H 0.0 **** 0.06
16525 H 23.052634643830245 148.47531021037886 114.01393551664401 H 0.0 **** 0.06
16526 C 193.38710810372842 39.64436179631684 55.58331667454452 C 0.0 **** -0.24
16527 H 193.28538502583328 40.35431889312275 56.4032752030967 H 0.0 **** 0.06
16528 H 192.40022729630502 39.39462647007073 55.19486564609633 H 0.0 **** 0.06
16529 H 193.87585891541028 38.739314290225906 55.94496616335445 H 0.0 **** 0.06
16530 H 193.98799594520736 40.08997439516827 54.79071659214074 H 0.0 **** 0.06
16531 C 185.70692338153628 63.87166559667068 2.8042103462180705 C 0.0 **** -0.24
16532 H 186.72897054738507 64.24723968894953 2.775603726186688 H 0.0 **** 0.06
16533 H 185.28045466977102 64.0564856179051 3.791045042775181 H 0.0 **** 0.06
16534 H 185.70789271846434 62.79967287742534 2.603927101478746 H 0.0 **** 0.06
16535 H 185.10944080080338 64.38174745824851 2.0492363585456133 H 0.0 **** 0.06
16536 C 43.35315819945403 166.73069625877793 118.54117303298938 C 0.0 **** -0.24
16537 H 42.68919724929283 167.31241267328474 117.90302766024442 H 0.0 **** 0.06
16538 H 43.74756672042072 165.88383398399503 117.97745507109892 H 0.0 **** 0.06
16539 H 42.798093880988375 166.3646088606228 119.40541739760508 H 0.0 **** 0.06
16540 H 44.176768796857516 167.3584067493202 118.87803169340393 H 0.0 **** 0.06
16541 C 143.95246782944074 160.48585367868665 101.96636778742672 C 0.0 **** -0.24
16542 H 143.90842560289192 159.55334371879584 101.4031225890169 H 0.0 **** 0.06
16543 H 144.8961097175956 160.99049086249067 101.75970870579675 H 0.0 **** 0.06
16544 H 143.88157292038287 160.27043564161062 103.03220625982749 H 0.0 **** 0.06
16545 H 143.12363832987702 161.12857974516967 101.66914303603838 H 0.0 **** 0.06
16546 C 142.93065987447835 108.76609826247972 183.1282021121774 C 0.0 **** -0.24
16547 H 144.00208592845038 108.96553065426122 183.1338241124769 H 0.0 **** 0.06
16548 H 142.61828646251413 108.48386671404367 182.12260831027072 H 0.0 **** 0.06
16549 H 142.3934744739585 109.6628528161157 183.43823245686025 H 0.0 **** 0.06
16550 H 142.7093045098673 107.95331247550118 183.8199793530182 H 0.0 **** 0.06
16551 C 24.960668307151707 49.16262779369242 192.59327864287224 C 0.0 **** -0.24
16552 H 24.465195455953904 49.61222227729607 191.7326712178052 H 0.0 **** 0.06
16553 H 24.798521869905187 48.08514796011235 192.58248940572776 H 0.0 **** 0.06
16554 H 24.549811237324036 49.58437295439876 193.50999787312273 H 0.0 **** 0.06
16555 H 26.029895543951056 49.371203206559926 192.5445639874864 H 0.0 **** 0.06
16556 C 120.10984631247896 104.33646473446407 133.0413931032775 C 0.0 **** -0.24
16557 H 120.17079048993202 104.17790872332276 134.1177403823834 H 0.0 **** 0.06
16558 H 119.32400922889667 105.06020770226698 132.82471158325723 H 0.0 **** 0.06
16559 H 119.880668164632 103.39171063579252 132.54744293084988 H 0.0 **** 0.06
16560 H 121.06452268437423 104.71527123640973 132.67591211953132 H 0.0 **** 0.06
16561 C 104.73416804003548 76.4643733163125 153.05969982393296 C 0.0 **** -0.24
16562 H 104.41950460463096 77.44693227157815 152.70763376435133 H 0.0 **** 0.06
16563 H 105.19559598164767 76.56169574351001 154.04301834208923 H 0.0 **** 0.06
16564 H 105.45441239031737 76.04184130550553 152.36025545616891 H 0.0 **** 0.06
16565 H 103.86666020934592 75.80920227455907 153.1279692680583 H 0.0 **** 0.06
16566 C 64.14070822473192 174.2798086073315 74.97157009326136 C 0.0 **** -0.24
16567 H 65.1534759214461 174.17895031905087 75.36021370229345 H 0.0 **** 0.06
16568 H 63.45403885526929 174.48340346268787 75.79340584342498 H 0.0 **** 0.06
16569 H 63.848777587665495 173.3548927003715 74.4746931072442 H 0.0 **** 0.06
16570 H 64.10655968055843 175.10258510357545 74.2566858928927 H 0.0 **** 0.06
16571 C 49.72274623340793 57.035832983186054 62.276076308184074 C 0.0 **** -0.24
16572 H 48.83984402266279 56.94947717150502 62.909864170530284 H 0.0 **** 0.06
16573 H 49.88314557947261 58.0826545788308 62.01865977209414 H 0.0 **** 0.06
16574 H 49.573434159428544 56.45568209522014 61.365453151152195 H 0.0 **** 0.06
16575 H 50.592195800640866 56.655111763933576 62.81182483276929 H 0.0 **** 0.06
16576 C 144.53518137188192 139.62457747473593 113.8313994285931 C 0.0 **** -0.24
16577 H 143.5407010797775 139.97074770491963 114.11036496628742 H 0.0 **** 0.06
16578 H 144.7939186608655 138.74656930617823 114.42313868817624 H 0.0 **** 0.06
16579 H 145.26066358061567 140.41610782894162 114.01769471461478 H 0.0 **** 0.06
16580 H 144.54524923411722 139.36387836252868 112.77241202355944 H 0.0 **** 0.06
16581 C 70.05238605571819 30.862041634714075 78.46308163133634 C 0.0 **** -0.24
16582 H 69.21661164123012 30.197812849091875 78.68176157694845 H 0.0 **** 0.06
16583 H 69.71354380628657 31.671379725916324 77.81622038645651 H 0.0 **** 0.06
16584 H 70.8402769599158 30.300506353927645 77.95994272556267 H 0.0 **** 0.06
16585 H 70.43982885917507 31.277091948162692 79.39363146772479 H 0.0 **** 0.06
16586 C 38.741667117663326 128.86183314845402 178.71291549488325 C 0.0 **** -0.24
16587 H 39.28384822267549 128.17683165051233 179.36511430599404 H 0.0 **** 0.06
16588 H 38.37594686262588 129.70636619145955 179.2961309744407 H 0.0 **** 0.06
16589 H 37.8990329743952 128.34028186134225 178.2584579631307 H 0.0 **** 0.06
16590 H 39.41082886612901 129.22230742936586 177.93032136362325 H 0.0 **** 0.06
16591 C 55.91016436296327 7.60244065980752 170.01528984255268 C 0.0 **** -0.24
16592 H 54.83099032396264 7.694111167959662 169.89946861060355 H 0.0 **** 0.06
16593 H 56.2239881547908 6.601470867599609 169.72114402812096 H 0.0 **** 0.06
16594 H 56.179536657421224 7.776760421062136 171.05733489214387 H 0.0 **** 0.06
16595 H 56.40716669566565 8.339591009946332 169.38369998277682 H 0.0 **** 0.06
16596 C 135.3969584371629 17.196246114104724 146.52816171861568 C 0.0 **** -0.24
16597 H 136.4727981396412 17.15397462631472 146.3599156911969 H 0.0 **** 0.06
16598 H 135.0903225155542 16.34409689022212 147.1339832886569 H 0.0 **** 0.06
16599 H 134.8784094275278 17.166449351295483 145.57018063997305 H 0.0 **** 0.06
16600 H 135.1468745140912 18.12086611016902 147.04733755874497 H 0.0 **** 0.06
16601 C 177.59684970696063 27.461466633197276 91.03559391409166 C 0.0 **** -0.24
16602 H 177.94405240145505 27.96053954036593 90.13181066085272 H 0.0 **** 0.06
16603 H 176.55205249264247 27.174679346904256 90.91333381962545 H 0.0 **** 0.06
16604 H 177.6907479143037 28.13883238145766 91.88462068658393 H 0.0 **** 0.06
16605 H 178.19988973128343 26.57057397580148 91.21277940509151 H 0.0 **** 0.06
16606 C 44.18367809986529 43.377887860862145 34.57509803225361 C 0.0 **** -0.24
16607 H 43.48742402373671 42.54796769293232 34.70034372245719 H 0.0 **** 0.06
16608 H 44.47061123566874 43.76165990139798 35.55480416556121 H 0.0 **** 0.06
16609 H 43.703664908409394 44.17009946913208 34.0004731212711 H 0.0 **** 0.06
16610 H 45.07029508379071 43.031635555840296 34.04602875541278 H 0.0 **** 0.06
16611 C 51.82881522163558 53.736717063477286 142.6425738057055 C 0.0 **** -0.24
16612 H 51.99773706900851 52.67294555830914 142.81081852074877 H 0.0 **** 0.06
16613 H 52.028551857309196 54.28548165413528 143.56315970157962 H 0.0 **** 0.06
16614 H 50.79369574717094 53.896931070619885 142.34081590619087 H 0.0 **** 0.06
16615 H 52.49572868828483 54.090080396419296 141.85636807064444 H 0.0 **** 0.06
16616 C 138.26600262628344 179.2563236106041 133.9905370037517 C 0.0 **** -0.24
16617 H 138.7615663439057 178.7734039438314 134.83194050411632 H 0.0 **** 0.06
16618 H 137.21108923597103 179.40494022764042 134.2259378764063 H 0.0 **** 0.06
16619 H 138.3551994371133 178.62590441057273 133.1048738172908 H 0.0 **** 0.06
16620 H 138.73525960191972 180.22078693281318 133.7979362250436 H 0.0 **** 0.06
16621 C 118.21557169964177 118.0604463755584 15.422599506373217 C 0.0 **** -0.24
16622 H 117.91435032842787 119.05766323442151 15.103493128290808 H 0.0 **** 0.06
16623 H 119.09810002646213 118.13357799227003 16.058413322789136 H 0.0 **** 0.06
16624 H 118.44730484000365 117.45251958121912 14.547407829528083 H 0.0 **** 0.06
16625 H 117.40217710850197 117.59673396085401 15.981540235321745 H 0.0 **** 0.06
16626 C 150.99349405036844 18.462038656379264 198.50236247564308 C 0.0 **** -0.24
16627 H 150.7827404524899 19.447118589019794 198.0870323512175 H 0.0 **** 0.06
16628 H 150.31395090498106 17.730263205193808 198.06391462768312 H 0.0 **** 0.06
16629 H 150.8534486674345 18.48641111984 199.5832579218259 H 0.0 **** 0.06
16630 H 152.0224969860487 18.18454411883431 198.27566134249528 H 0.0 **** 0.06
16631 C 106.44574416150328 86.77294360166877 116.39149613072942 C 0.0 **** -0.24
16632 H 106.98793311297868 87.71857312417939 116.39754856408038 H 0.0 **** 0.06
16633 H 106.41162498692313 86.37996022153936 115.37589797976926 H 0.0 **** 0.06
16634 H 105.4295794237955 86.93515632782055 116.75343394108924 H 0.0 **** 0.06
16635 H 106.95203818173795 86.0589857081817 117.04132778516578 H 0.0 **** 0.06
16636 C 141.92097587594822 18.00154758036436 60.234586968352005 C 0.0 **** -0.24
16637 H 140.93265301394635 18.2138078014694 59.826099252246195 H 0.0 **** 0.06
16638 H 142.3495481503921 18.9176541172382 60.64288996145888 H 0.0 **** 0.06
16639 H 142.56546405257671 17.61920868254576 59.44411963654663 H 0.0 **** 0.06
16640 H 141.83492216813346 17.257066671300294 61.02617437434223 H 0.0 **** 0.06
16641 C 119.15215291580603 189.33254470020154 55.05714371469321 C 0.0 **** -0.24
16642 H 119.74244608151713 189.34741253111136 55.97432016820545 H 0.0 **** 0.06
16643 H 118.6529359965109 190.29321193648747 54.93163433043935 H 0.0 **** 0.06
16644 H 118.40679239618851 188.53938334180276 55.11865343105137 H 0.0 **** 0.06
16645 H 119.80799994579161 189.14893972932418 54.20662061004998 H 0.0 **** 0.06
16646 C 3.486221525294269 33.35563884312916 105.04103619976499 C 0.0 **** -0.24
16647 H 2.5517953294619247 32.81918344183046 105.20502389253926 H 0.0 **** 0.06
16648 H 3.31652830509438 34.177650740828255 104.34582160890025 H 0.0 **** 0.06
16649 H 4.227564871950619 32.67296279079818 104.62318074810528 H 0.0 **** 0.06
16650 H 3.8499504930031208 33.749914409788744 105.99005606475987 H 0.0 **** 0.06
16651 C 195.0819127828907 167.2376733858998 85.30058730970669 C 0.0 **** -0.24
16652 H 194.89910125376176 166.81770418213387 84.31226273643728 H 0.0 **** 0.06
16653 H 195.9856733900948 166.79566468487894 85.721200881002 H 0.0 **** 0.06
16654 H 194.2350269510295 167.0200479296901 85.95019580546813 H 0.0 **** 0.06
16655 H 195.209254536789 168.31734352051367 85.21883664644179 H 0.0 **** 0.06
16656 C 86.85420510787404 10.645767613916824 41.64937048780962 C 0.0 **** -0.24
16657 H 87.42256048874489 11.570342047097817 41.752999497934354 H 0.0 **** 0.06
16658 H 85.91549717530003 10.852333803260791 41.13582058984929 H 0.0 **** 0.06
16659 H 86.64704432391204 10.235627004447196 42.6373268393956 H 0.0 **** 0.06
16660 H 87.43435319871418 9.926773640672394 41.07115034263177 H 0.0 **** 0.06
16661 C 63.915252998283165 183.04253862640624 155.62950148502526 C 0.0 **** -0.24
16662 H 63.06745841076463 183.56314173306185 155.18336648240967 H 0.0 **** 0.06
16663 H 64.33117603831403 183.6496191312872 156.43371599121633 H 0.0 **** 0.06
16664 H 64.67805468044457 182.87353449217193 154.86871905701275 H 0.0 **** 0.06
16665 H 63.583004500293384 182.0851152171516 156.02961898350242 H 0.0 **** 0.06
16666 C 189.7669328293968 127.44998801498122 148.15911019318935 C 0.0 **** -0.24
16667 H 189.85278517453037 126.40333116713734 148.44855357002575 H 0.0 **** 0.06
16668 H 189.82936327518996 128.0787211927185 149.04809767523673 H 0.0 **** 0.06
16669 H 188.8095436296136 127.6135137367765 147.66466410461743 H 0.0 **** 0.06
16670 H 190.57804813176972 127.70503920796062 147.47585872112978 H 0.0 **** 0.06
16671 C 73.61747220983972 165.01950593695014 50.82341790465871 C 0.0 **** -0.24
16672 H 72.92835075945925 164.20098424436492 51.034788619015686 H 0.0 **** 0.06
16673 H 73.23246933065337 165.9407738964104 51.26374150333531 H 0.0 **** 0.06
16674 H 73.71258083323505 165.1439873485343 49.745030962800044 H 0.0 **** 0.06
16675 H 74.59365331471577 164.79215405034742 51.251085111538444 H 0.0 **** 0.06
16676 C 145.6361994548027 141.80143568339184 43.50732490047554 C 0.0 **** -0.24
16677 H 144.60262191761936 142.09785861951457 43.331918018404224 H 0.0 **** 0.06
16678 H 146.05756034310622 142.40828979228024 44.308661141714026 H 0.0 **** 0.06
16679 H 146.21623858254733 141.95001686106633 42.59622614758888 H 0.0 **** 0.06
16680 H 145.66965201906834 140.74925129224096 43.79136826400128 H 0.0 **** 0.06
16681 C 183.58314025242015 142.74175114698838 145.28642584330873 C 0.0 **** -0.24
16682 H 183.13488371900263 141.86152041098842 144.8265099859646 H 0.0 **** 0.06
16683 H 183.8663109975638 142.51069285359114 146.31398562535298 H 0.0 **** 0.06
16684 H 182.86289199585693 143.5600494531769 145.28242341040732 H 0.0 **** 0.06
16685 H 184.46940022665197 143.03489034557012 144.72243703114464 H 0.0 **** 0.06
16686 C 21.597504348606634 82.38068223195864 173.00892581744742 C 0.0 **** -0.24
16687 H 21.05569643251664 81.43664194080708 173.0709564887249 H 0.0 **** 0.06
16688 H 22.640553025975052 82.21963795257628 173.28140678869178 H 0.0 **** 0.06
16689 H 21.15040057968902 83.10119548534544 173.69441948774409 H 0.0 **** 0.06
16690 H 21.54262900002557 82.7656996485637 171.99161420065855 H 0.0 **** 0.06
16691 C 44.575963436341794 5.86026087652246 144.42291429495188 C 0.0 **** -0.24
16692 H 45.57156149433425 5.615477771651285 144.05340189791687 H 0.0 **** 0.06
16693 H 44.64663989107777 6.677286918412477 145.1428136114368 H 0.0 **** 0.06
16694 H 44.14332367750521 4.985509424130669 144.90821771889182 H 0.0 **** 0.06
16695 H 43.9435983392093 6.16362350182979 143.5896027413525 H 0.0 **** 0.06
16696 C 139.86142686754135 21.394640050351683 129.7237135696962 C 0.0 **** -0.24
16697 H 140.31358675927464 20.404571944662905 129.66392005732052 H 0.0 **** 0.06
16698 H 140.64429642237144 22.143398639008012 129.84684979914232 H 0.0 **** 0.06
16699 H 139.1840532929898 21.433838403452683 130.57764169522056 H 0.0 **** 0.06
16700 H 139.30571864212095 21.59629960945449 128.80867944800156 H 0.0 **** 0.06
16701 C 7.582667064243367 17.417498505398996 195.68121513679628 C 0.0 **** -0.24
16702 H 8.170205685493045 18.15697626518437 195.13713638096817 H 0.0 **** 0.06
16703 H 8.065747350569097 17.199652690470316 196.6341686185601 H 0.0 **** 0.06
16704 H 7.513207387049761 16.503389202147048 195.09177624087718 H 0.0 **** 0.06
16705 H 6.581678446986132 17.809515874632623 195.86265069805205 H 0.0 **** 0.06
16706 C 45.367023440806236 105.83501186704726 6.025939651389692 C 0.0 **** -0.24
16707 H 44.59805556280645 105.7382541619049 5.2588548758628235 H 0.0 **** 0.06
16708 H 46.317463823725404 106.08961727749491 5.555800449267515 H 0.0 **** 0.06
16709 H 45.46781058795386 104.89095848783253 6.560355057750854 H 0.0 **** 0.06
16710 H 45.08496231202872 106.62167139517013 6.7254687650029155 H 0.0 **** 0.06
16711 C 197.86884598337605 157.6686248314403 112.22732405382132 C 0.0 **** -0.24
16712 H 197.15467683194004 157.64335440221538 111.404346831797 H 0.0 **** 0.06
16713 H 197.9587246342225 158.6900461888382 112.59834553744258 H 0.0 **** 0.06
16714 H 198.84002892600577 157.3220454339126 111.87662039447929 H 0.0 **** 0.06
16715 H 197.51963662287383 157.01974593994646 113.0303736688738 H 0.0 **** 0.06
16716 C 198.57864330748862 47.021345968575474 61.280687281836364 C 0.0 **** -0.24
16717 H 197.61091041011642 46.800777784383854 61.731533602286106 H 0.0 **** 0.06
16718 H 198.8916157262775 48.025928531515774 61.56671846896663 H 0.0 **** 0.06
16719 H 198.49546874876475 46.961153520826656 60.19559947838286 H 0.0 **** 0.06
16720 H 199.31559939912276 46.29815125256971 61.62970275468061 H 0.0 **** 0.06
16721 C 145.92466527226586 169.8850158430347 64.65339265232552 C 0.0 **** -0.24
16722 H 146.00562560257302 170.24867726440547 65.67832753008946 H 0.0 **** 0.06
16723 H 145.87171767682656 168.796278470949 64.65799380881015 H 0.0 **** 0.06
16724 H 146.79634017862907 170.20571757680852 64.08363400132924 H 0.0 **** 0.06
16725 H 145.02238263668409 170.29120625990274 64.19533797135784 H 0.0 **** 0.06
16726 C 115.52918946692034 52.67824778860577 50.47320049191728 C 0.0 **** -0.24
16727 H 116.53952536835476 53.04087123085699 50.65915011064442 H 0.0 **** 0.06
16728 H 115.57611411950518 51.74679593651284 49.90760678518012 H 0.0 **** 0.06
16729 H 114.97521161645898 53.422798563287415 49.902420022347656 H 0.0 **** 0.06
16730 H 115.02676807969965 52.50033388590069 51.424299901816426 H 0.0 **** 0.06
16731 C 30.734134949979136 114.9478847056264 20.287540230497655 C 0.0 **** -0.24
16732 H 31.75261344448228 114.57604151270152 20.176685040749618 H 0.0 **** 0.06
16733 H 30.193976654584503 114.81198307035606 19.350299890012423 H 0.0 **** 0.06
16734 H 30.76009858619483 116.00728248289863 20.542910400655387 H 0.0 **** 0.06
16735 H 30.230642245026445 114.39513103654656 21.081736173681065 H 0.0 **** 0.06
16736 C 132.71537151685638 123.34554570924294 164.42924829510923 C 0.0 **** -0.24
16737 H 133.28351668567979 124.26473888603562 164.29008784484947 H 0.0 **** 0.06
16738 H 131.89330083245486 123.31511092160773 163.71324464730327 H 0.0 **** 0.06
16739 H 132.31540378981418 123.31420251079805 165.4425562916976 H 0.0 **** 0.06
16740 H 133.36785651441062 122.48661646485738 164.26979114984277 H 0.0 **** 0.06
16741 C 189.84069296356444 189.7249860472755 94.2991171355738 C 0.0 **** -0.24
16742 H 189.4548171391912 189.08626419484753 95.09350615978309 H 0.0 **** 0.06
16743 H 190.05262654119508 189.11927355996875 93.417237747981 H 0.0 **** 0.06
16744 H 190.75609514653283 190.20995039531735 94.63568818419259 H 0.0 **** 0.06
16745 H 189.0983303082368 190.48243610188229 94.04971232000139 H 0.0 **** 0.06
16746 C 30.038922202839387 59.3465375149251 8.265021521334887 C 0.0 **** -0.24
16747 H 29.4502795386594 58.78613246478733 7.538835820812352 H 0.0 **** 0.06
16748 H 30.244622179142453 60.342964190475186 7.87259050109256 H 0.0 **** 0.06
16749 H 30.97883309027401 58.82698677215069 8.450432480900503 H 0.0 **** 0.06
16750 H 29.480460561490077 59.43161058347579 9.197606030229679 H 0.0 **** 0.06
16751 C 42.572315983723584 22.42089731630928 46.55702069866618 C 0.0 **** -0.24
16752 H 43.007859093139714 22.62928627398695 45.58047633432 H 0.0 **** 0.06
16753 H 42.226891850047835 23.35225113337721 47.007012856415315 H 0.0 **** 0.06
16754 H 43.32527591458694 21.963851833019277 47.2005519655562 H 0.0 **** 0.06
16755 H 41.73100546027605 21.738471652661715 46.44171471011356 H 0.0 **** 0.06
16756 C 154.5689489392521 120.06585528732217 128.7631411826379 C 0.0 **** -0.24
16757 H 154.5861184243388 120.52517518029845 127.77547367889642 H 0.0 **** 0.06
16758 H 154.47649566384348 120.84211301077772 129.52308396504336 H 0.0 **** 0.06
16759 H 155.49359770489536 119.51128780617648 128.92159067334507 H 0.0 **** 0.06
16760 H 153.72049401086056 119.38557555767511 128.8332153910019 H 0.0 **** 0.06
16761 C 49.96361247451706 187.69797143544992 159.1225582935245 C 0.0 **** -0.24
16762 H 49.80982927734303 186.72151500448265 159.58150626596117 H 0.0 **** 0.06
16763 H 48.99760509589646 188.13353915920936 158.86585963841458 H 0.0 **** 0.06
16764 H 50.563481580509844 187.58427843189872 158.21977834691336 H 0.0 **** 0.06
16765 H 50.48206171107876 188.35184436304922 159.8249138297707 H 0.0 **** 0.06
16766 C 66.38273100937414 142.56423376402506 39.01150531711991 C 0.0 **** -0.24
16767 H 65.450012334897 142.85901566027167 38.53149055445908 H 0.0 **** 0.06
16768 H 66.1816584911665 141.78659305995689 39.749293559137584 H 0.0 **** 0.06
16769 H 66.82501036023874 143.42905509356297 39.505869274370156 H 0.0 **** 0.06
16770 H 67.0733358483051 142.18173025524834 38.260308477127865 H 0.0 **** 0.06
16771 C 2.833132518024968 46.8651765879645 116.386716124358 C 0.0 **** -0.24
16772 H 2.7066290540209934 45.78363499064807 116.34921534516212 H 0.0 **** 0.06
16773 H 3.558810649870111 47.119694671925515 117.15864323103352 H 0.0 **** 0.06
16774 H 1.8766997835166421 47.33525406706585 116.61829180876006 H 0.0 **** 0.06
16775 H 3.1880733802984196 47.22266526012106 115.42013425248848 H 0.0 **** 0.06
16776 C 161.5146135219608 63.50884210760796 95.7250200995133 C 0.0 **** -0.24
16777 H 160.94105130957283 62.83812903925009 95.08630105137081 H 0.0 **** 0.06
16778 H 161.61565814624856 63.067541259653694 96.71630321595765 H 0.0 **** 0.06
16779 H 160.99809510387297 64.46525233474208 95.80415843702409 H 0.0 **** 0.06
16780 H 162.5035953302434 63.665227763007834 95.29393867118134 H 0.0 **** 0.06
16781 C 167.35048458561332 171.90209856853835 160.2608308703018 C 0.0 **** -0.24
16782 H 167.98105891031992 172.79046729226326 160.25547484281168 H 0.0 **** 0.06
16783 H 167.11914199481987 171.6146106187204 159.23405386566174 H 0.0 **** 0.06
16784 H 166.42494704159597 172.11596150225773 160.7950888377224 H 0.0 **** 0.06
16785 H 167.87638092649382 171.08555441444855 160.75709632102422 H 0.0 **** 0.06
16786 C 120.81796647921641 16.440037582791362 145.36402348719034 C 0.0 **** -0.24
16787 H 121.12466289563113 15.472613898839114 145.76152996970032 H 0.0 **** 0.06
16788 H 120.24482725475286 16.291461171947716 144.4482745124621 H 0.0 **** 0.06
16789 H 121.7016888503808 17.04026706924971 145.14696584028135 H 0.0 **** 0.06
16790 H 120.20041389671857 16.95529524745986 146.10061296430374 H 0.0 **** 0.06
16791 C 117.85620302226386 90.66696148616239 186.6474751822297 C 0.0 **** -0.24
16792 H 117.4792294772414 90.20118500851689 185.73713519381795 H 0.0 **** 0.06
16793 H 117.02997781139157 91.13059293202366 187.18622879973623 H 0.0 **** 0.06
16794 H 118.59374179027691 91.42697228860825 186.38770826968334 H 0.0 **** 0.06
16795 H 118.3220146823366 89.90886364235303 187.27684775266135 H 0.0 **** 0.06
16796 C 40.49726967117938 170.75408873844364 120.73680431771075 C 0.0 **** -0.24
16797 H 39.87800118065704 169.92228573253516 121.07318503630478 H 0.0 **** 0.06
16798 H 41.540904867386686 170.4379925273273 120.70131497432607 H 0.0 **** 0.06
16799 H 40.39310939276551 171.58819895963697 121.43135559504117 H 0.0 **** 0.06
16800 H 40.17773081288402 171.06710472084217 119.74308122568516 H 0.0 **** 0.06
16801 C 128.6136184729754 122.76764454164697 184.8137010971767 C 0.0 **** -0.24
16802 H 128.70482430307817 122.01523683130935 184.02970247622096 H 0.0 **** 0.06
16803 H 128.4013360892194 122.27728007051621 185.76377823022946 H 0.0 **** 0.06
16804 H 127.801574212025 123.450824385577 184.56693992009414 H 0.0 **** 0.06
16805 H 129.54718491417134 123.32493559889906 184.89251140521588 H 0.0 **** 0.06
16806 C 34.858389235344475 20.86846873313226 163.8276809251613 C 0.0 **** -0.24
16807 H 33.94030975709947 21.237934740645613 163.37047568684702 H 0.0 **** 0.06
16808 H 35.01689896115617 19.82974622770311 163.5349576059041 H 0.0 **** 0.06
16809 H 34.77534335620699 20.931589551563007 164.91256194217257 H 0.0 **** 0.06
16810 H 35.699601763221736 21.47315748846347 163.49133640242587 H 0.0 **** 0.06
16811 C 74.31161149162591 28.327510556146976 22.63949652044755 C 0.0 **** -0.24
16812 H 73.92886061484883 28.164282077664453 23.647118929823577 H 0.0 **** 0.06
16813 H 74.19835167983528 29.377885677164258 22.374079924857185 H 0.0 **** 0.06
16814 H 73.75335063749439 27.71162832198131 21.93501049740874 H 0.0 **** 0.06
16815 H 75.36648890005836 28.054269229240333 22.603950416513413 H 0.0 **** 0.06
16816 C 86.18975788310848 141.3626035136405 62.899867096614386 C 0.0 **** -0.24
16817 H 87.16165781129598 140.9112196409941 62.69988255626876 H 0.0 **** 0.06
16818 H 86.19108936115259 141.7993442001261 63.8981238091276 H 0.0 **** 0.06
16819 H 85.41562113707738 140.5980713641333 62.83827519705524 H 0.0 **** 0.06
16820 H 85.99221615231784 142.1405141226044 62.16219234690931 H 0.0 **** 0.06
16821 C 58.962695034278795 198.5014127993819 98.65076052563515 C 0.0 **** -0.24
16822 H 59.335405659524014 198.17576193341955 97.67923131793768 H 0.0 **** 0.06
16823 H 58.69459400980054 197.62862375514496 99.24634831338821 H 0.0 **** 0.06
16824 H 58.084356456542565 199.13014611675845 98.5097980855142 H 0.0 **** 0.06
16825 H 59.7383997529389 199.0689526737709 99.16476574058868 H 0.0 **** 0.06
16826 C 69.25165388546804 45.87975488305261 135.62554209926358 C 0.0 **** -0.24
16827 H 69.46236402425615 45.34964781098148 136.55450411030074 H 0.0 **** 0.06
16828 H 70.00426901734716 46.652310521015636 135.46919017717403 H 0.0 **** 0.06
16829 H 68.26505689335367 46.34042573705187 135.6865621613036 H 0.0 **** 0.06
16830 H 69.27290803875555 45.17603233570998 134.79316326186532 H 0.0 **** 0.06
16831 C 57.01744006603178 130.92346369019043 181.3164908374793 C 0.0 **** -0.24
16832 H 57.162884758930545 129.9783367000615 180.79349227838986 H 0.0 **** 0.06
16833 H 57.069459128929424 131.74631344921647 180.60268764369923 H 0.0 **** 0.06
16834 H 57.796962368399534 131.0451695911508 182.0691762668469 H 0.0 **** 0.06
16835 H 56.040964913672354 130.9234269669683 181.8017773274642 H 0.0 **** 0.06
16836 C 51.29625157109443 92.29120454072375 65.31940672373213 C 0.0 **** -0.24
16837 H 52.109278336275366 91.56577851921631 65.33298002223316 H 0.0 **** 0.06
16838 H 50.37985735863903 91.80327061659173 64.98916319266777 H 0.0 **** 0.06
16839 H 51.54511092291946 93.10083942705447 64.63389739469727 H 0.0 **** 0.06
16840 H 51.152900168412145 92.69455520025531 66.32211371745188 H 0.0 **** 0.06
16841 C 21.91048218685154 150.52264490533614 176.43966278614963 C 0.0 **** -0.24
16842 H 22.417021943905837 151.3098662400474 176.99887718768792 H 0.0 **** 0.06
16843 H 22.26381204349414 149.54946118447629 176.7829923318825 H 0.0 **** 0.06
16844 H 22.128588686266312 150.63450912673972 175.37785883981488 H 0.0 **** 0.06
16845 H 20.83526856700462 150.59621297293054 176.6003677226312 H 0.0 **** 0.06
16846 C 59.922860311855686 23.590318371793558 178.82744658632032 C 0.0 **** -0.24
16847 H 59.04980623396153 23.287561321923363 178.2499291292388 H 0.0 **** 0.06
16848 H 59.976352870019184 24.678781088831272 178.85965146186945 H 0.0 **** 0.06
16849 H 60.82378884456767 23.196133435745622 178.35739584937812 H 0.0 **** 0.06
16850 H 59.8418262491287 23.19986528601632 179.84194427162504 H 0.0 **** 0.06
16851 C 168.02453492950445 25.737880099191273 45.69818746881202 C 0.0 **** -0.24
16852 H 167.39116464154614 26.557979234283152 46.03690590176295 H 0.0 **** 0.06
16853 H 167.40285095201645 24.960387716440323 45.25276481896178 H 0.0 **** 0.06
16854 H 168.56949777760303 25.325316219459467 46.54633733065853 H 0.0 **** 0.06
16855 H 168.73170246828644 26.107548998368657 44.9561351499995 H 0.0 **** 0.06
16856 C 43.9021275790783 84.63737377826209 36.96179352150838 C 0.0 **** -0.24
16857 H 44.32245324552831 84.99920597200608 37.90097109444194 H 0.0 **** 0.06
16858 H 44.71097336579882 84.34826861849032 36.29107944464381 H 0.0 **** 0.06
16859 H 43.31084234721504 85.42777054057805 36.5000680589345 H 0.0 **** 0.06
16860 H 43.265845956569464 83.77471835542707 37.15773990697676 H 0.0 **** 0.06
16861 C 97.59677351764023 167.90098399787743 102.30067951921373 C 0.0 **** -0.24
16862 H 96.92013507024362 168.17763620585708 101.49297436216409 H 0.0 **** 0.06
16863 H 97.43530982472618 166.85695581855273 102.56916661392947 H 0.0 **** 0.06
16864 H 97.40556755296001 168.53291156755168 103.16730889959456 H 0.0 **** 0.06
16865 H 98.628219666957 168.03629166691812 101.97262861624571 H 0.0 **** 0.06
16866 C 193.23214728888786 31.726927219591346 83.72237266864386 C 0.0 **** -0.24
16867 H 192.8014587568927 32.259139948546334 82.87476859724472 H 0.0 **** 0.06
16868 H 192.68136227172442 30.80047611643323 83.88661003496065 H 0.0 **** 0.06
16869 H 193.16919218243464 32.35137772648079 84.61339730096086 H 0.0 **** 0.06
16870 H 194.2773676148247 31.496443866075225 83.51357467974799 H 0.0 **** 0.06
16871 C 97.47507612748387 108.75955985117929 87.67013254222005 C 0.0 **** -0.24
16872 H 97.62833525203368 107.95496897303536 86.95089068914609 H 0.0 **** 0.06
16873 H 98.33040340463472 109.43614308621187 87.6449512388285 H 0.0 **** 0.06
16874 H 97.37450130210706 108.33945655246092 88.67068868600407 H 0.0 **** 0.06
16875 H 96.5699235429228 109.30901671348443 87.41387756989525 H 0.0 **** 0.06
16876 C 61.0605358243119 120.72129423905892 121.93766739654595 C 0.0 **** -0.24
16877 H 61.124974524063134 119.79503212719229 121.36836449322001 H 0.0 **** 0.06
16878 H 60.684715924027984 120.50782771713364 122.93956319101565 H 0.0 **** 0.06
16879 H 60.38211751831034 121.41091141632481 121.43478028539423 H 0.0 **** 0.06
16880 H 62.04983330796972 121.1732971076037 122.00943493366412 H 0.0 **** 0.06
16881 C 97.73193128052063 116.22121245587013 117.30755502107485 C 0.0 **** -0.24
16882 H 98.18451830165836 115.51356249867021 118.00261992598169 H 0.0 **** 0.06
16883 H 98.45747467543322 116.48977711164662 116.53984642656116 H 0.0 **** 0.06
16884 H 97.42548489521008 117.11571424249675 117.84880988262631 H 0.0 **** 0.06
16885 H 96.86067239356291 115.76300435920882 116.83995693983815 H 0.0 **** 0.06
16886 C 73.26657187770346 60.19467721084514 20.00749995890726 C 0.0 **** -0.24
16887 H 74.32892888813393 60.02963000373697 19.82640966180854 H 0.0 **** 0.06
16888 H 73.00918513132486 59.842247979010565 21.00617526914749 H 0.0 **** 0.06
16889 H 72.6826557201357 59.64799988652496 19.266729740741766 H 0.0 **** 0.06
16890 H 73.04626820571785 61.25996675471771 19.928911197033642 H 0.0 **** 0.06
16891 C 188.89623155353027 3.723993320472978 157.0428226842189 C 0.0 **** -0.24
16892 H 187.8276448988523 3.860379724328183 156.88241398211176 H 0.0 **** 0.06
16893 H 189.07546091690477 2.743840886975761 157.48521135268658 H 0.0 **** 0.06
16894 H 189.2645438434936 4.498819617668545 157.71643160961855 H 0.0 **** 0.06
16895 H 189.41901879084634 3.793113796735838 156.08862377575355 H 0.0 **** 0.06
16896 C 133.00080091911462 118.15735079581967 98.87173174207766 C 0.0 **** -0.24
16897 H 132.8560996372366 117.83181174567346 99.90213436236365 H 0.0 **** 0.06
16898 H 133.61039993360552 117.42382044114302 98.34250118879447 H 0.0 **** 0.06
16899 H 133.50462388365878 119.1237511522657 98.86327904446131 H 0.0 **** 0.06
16900 H 132.03181693274266 118.24768951110724 98.38059363782259 H 0.0 **** 0.06
16901 C 104.88429365810987 72.87029510547785 87.4720702105389 C 0.0 **** -0.24
16902 H 104.95713959588272 73.90731159990048 87.14490979999132 H 0.0 **** 0.06
16903 H 105.30899309858097 72.21766500037893 86.70890638359464 H 0.0 **** 0.06
16904 H 103.83674715648951 72.61168852096762 87.62970163137103 H 0.0 **** 0.06
16905 H 105.43301255008177 72.7433510315409 88.40474241449064 H 0.0 **** 0.06
16906 C 77.73228328463935 167.24681149601267 115.82040179967123 C 0.0 **** -0.24
16907 H 77.75129968130729 168.29730130552102 116.10937792996833 H 0.0 **** 0.06
16908 H 76.7040418590186 166.93999346836833 115.63237275365896 H 0.0 **** 0.06
16909 H 78.15158277217628 166.64174529246432 116.62446741806474 H 0.0 **** 0.06
16910 H 78.32389342559524 167.10854331314334 114.91560899140404 H 0.0 **** 0.06
16911 C 192.78767980673473 62.32180336090076 26.769189393915212 C 0.0 **** -0.24
16912 H 192.77103408989717 61.799032971926096 27.725631618079035 H 0.0 **** 0.06
16913 H 193.65333244240384 61.995022611789864 26.19152203611918 H 0.0 **** 0.06
16914 H 192.8502935164277 63.39572898529735 26.94329840297462 H 0.0 **** 0.06
16915 H 191.87567143433267 62.09653043299562 26.216099414135385 H 0.0 **** 0.06
16916 C 112.13430524369653 149.7815978896433 59.5801932937363 C 0.0 **** -0.24
16917 H 112.07261650690288 149.04385311528898 58.780604139757855 H 0.0 **** 0.06
16918 H 111.18624910921943 149.81513855108184 60.1185429087524 H 0.0 **** 0.06
16919 H 112.3447992277953 150.7627923205906 59.15349963826209 H 0.0 **** 0.06
16920 H 112.93328942577176 149.50599604742732 60.26809413799759 H 0.0 **** 0.06
16921 C 53.773524141344296 146.348354397636 127.50915754134516 C 0.0 **** -0.24
16922 H 52.73691605277011 146.06239056614538 127.33114900696864 H 0.0 **** 0.06
16923 H 54.15648153256855 146.8854971442383 126.64130271824106 H 0.0 **** 0.06
16924 H 54.3729379660804 145.4542180838675 127.67799765434049 H 0.0 **** 0.06
16925 H 53.82601445994764 146.99219115378352 128.3884559724258 H 0.0 **** 0.06
16926 C 189.73812566463243 161.4053802019354 163.64401559111033 C 0.0 **** -0.24
16927 H 190.1551497430824 161.7571474828779 162.70039788273834 H 0.0 **** 0.06
16928 H 188.85813361880494 160.79455328361405 163.4463590096081 H 0.0 **** 0.06
16929 H 189.45649124406523 162.26209287192506 164.25714702921934 H 0.0 **** 0.06
16930 H 190.48416093694368 160.81047373664398 164.17152328421818 H 0.0 **** 0.06
16931 C 152.9661762907486 43.34445928122935 190.57725715334388 C 0.0 **** -0.24
16932 H 153.57423509676642 42.44105857169427 190.61704804059016 H 0.0 **** 0.06
16933 H 153.30545102944575 43.974612729181075 189.75502180399764 H 0.0 **** 0.06
16934 H 153.06146597340194 43.88879214792618 191.51682901887244 H 0.0 **** 0.06
16935 H 151.922553941501 43.072022903095004 190.4197087599312 H 0.0 **** 0.06
16936 C 101.20689614553353 164.21776294225765 57.67703424178336 C 0.0 **** -0.24
16937 H 101.48207372691226 163.1849862793076 57.889581490802755 H 0.0 **** 0.06
16938 H 100.97460289213987 164.32153410751755 56.61695354645167 H 0.0 **** 0.06
16939 H 102.03702370846804 164.87597819551985 57.933891394670354 H 0.0 **** 0.06
16940 H 100.33252620263494 164.4887181760899 58.26916949366796 H 0.0 **** 0.06
16941 C 47.808123208997756 139.62620781600265 8.504023817450275 C 0.0 **** -0.24
16942 H 46.9332698089238 139.01899756026359 8.737338893743072 H 0.0 **** 0.06
16943 H 48.69668704778411 139.16333250073674 8.933404104197393 H 0.0 **** 0.06
16944 H 47.67882891996817 140.62468819675016 8.923308479938015 H 0.0 **** 0.06
16945 H 47.920962339577926 139.69849506799162 7.422082240493893 H 0.0 **** 0.06
16946 C 45.53369473583132 97.30959083688325 56.47854950546956 C 0.0 **** -0.24
16947 H 44.85271222234465 97.38560956176192 55.63112125342276 H 0.0 **** 0.06
16948 H 44.96105379709056 97.14204276797838 57.39127602689658 H 0.0 **** 0.06
16949 H 46.102457865459314 98.23407239487972 56.57149037587412 H 0.0 **** 0.06
16950 H 46.217814109911984 96.47561471913681 56.32094492031915 H 0.0 **** 0.06
16951 C 60.651985259735554 82.11031095288311 196.93479347104415 C 0.0 **** -0.24
16952 H 61.55593428129238 82.34369241097201 197.49711094104572 H 0.0 **** 0.06
16953 H 60.828331226410384 82.29417516812907 195.8744266674235 H 0.0 **** 0.06
16954 H 59.83506612322131 82.74204740015637 197.28333882567102 H 0.0 **** 0.06
16955 H 60.391167996851024 81.06280080083363 197.08376160836474 H 0.0 **** 0.06
16956 C 132.97654729540133 79.00009086572044 133.98320376568893 C 0.0 **** -0.24
16957 H 132.83522077134867 77.92153003443133 134.0626081793465 H 0.0 **** 0.06
16958 H 134.03472857542536 79.21669790755766 133.83436336163953 H 0.0 **** 0.06
16959 H 132.6322760309721 79.47977553407645 134.89914622364 H 0.0 **** 0.06
16960 H 132.40422474069703 79.37937206740617 133.13676396234223 H 0.0 **** 0.06
16961 C 160.47534001876448 113.80293580602705 140.89431412266143 C 0.0 **** -0.24
16962 H 159.57364515749043 114.04805603218347 140.3322348087288 H 0.0 **** 0.06
16963 H 160.62610051295525 112.72279244773702 140.8841991652674 H 0.0 **** 0.06
16964 H 160.364827418409 114.14484429094674 141.92283597998826 H 0.0 **** 0.06
16965 H 161.33346484282137 114.29522699638173 140.4374521757792 H 0.0 **** 0.06
16966 C 16.67769363939351 186.30190783616064 99.35322052727258 C 0.0 **** -0.24
16967 H 17.170808919920034 185.3550214277984 99.13049163512989 H 0.0 **** 0.06
16968 H 17.424728567531815 187.09325267542118 99.42154228296442 H 0.0 **** 0.06
16969 H 16.146562735171187 186.2202364578838 100.3018640028165 H 0.0 **** 0.06
16970 H 15.96942257911121 186.53702765710614 98.55874116452696 H 0.0 **** 0.06
16971 C 177.8466719828493 166.13405774786543 158.50986113136943 C 0.0 **** -0.24
16972 H 178.6845766337108 165.45211707540665 158.36291756739487 H 0.0 **** 0.06
16973 H 178.1577854923033 167.14963306632563 158.26301733251267 H 0.0 **** 0.06
16974 H 177.5245416642003 166.09493761173638 159.55099339002044 H 0.0 **** 0.06
16975 H 177.02110487865 165.83919405846726 157.86288198059063 H 0.0 **** 0.06
16976 C 138.186638618752 65.29856756982043 71.35886809345607 C 0.0 **** -0.24
16977 H 139.1481065142175 65.10806019337646 70.8817537327028 H 0.0 **** 0.06
16978 H 137.39580222345734 64.80661702189613 70.79220933717878 H 0.0 **** 0.06
16979 H 138.001076211204 66.37210339785834 71.3867623986605 H 0.0 **** 0.06
16980 H 138.20261863035523 64.90635934401207 72.37665002952558 H 0.0 **** 0.06
16981 C 59.50627715160181 70.46045083195997 46.81104089630293 C 0.0 **** -0.24
16982 H 59.72080679107904 70.79823038057049 45.796456388797594 H 0.0 **** 0.06
16983 H 60.43981344843678 70.33723249017112 47.35844738758004 H 0.0 **** 0.06
16984 H 58.977794497074285 69.5084127459325 46.77138953603122 H 0.0 **** 0.06
16985 H 58.88365398717974 71.20042376809502 47.3149497707642 H 0.0 **** 0.06
16986 C 37.0857982142484 74.18534349150968 95.57467327946966 C 0.0 **** -0.24
16987 H 38.069323965721566 74.5582750968016 95.28997908873885 H 0.0 **** 0.06
16988 H 36.36733353409369 75.00544627457236 95.55795110309623 H 0.0 **** 0.06
16989 H 37.13277676990654 73.76418366852977 96.57919461468293 H 0.0 **** 0.06
16990 H 36.7730236030535 73.41285687954462 94.8712763887907 H 0.0 **** 0.06
16991 C 74.37517828227477 71.77146375406004 72.67785790788359 C 0.0 **** -0.24
16992 H 73.9941904316839 72.07062549724574 73.65408133616626 H 0.0 **** 0.06
16993 H 74.62157824918316 72.66123413175887 72.09676716095684 H 0.0 **** 0.06
16994 H 73.6156061217887 71.19261867709439 72.15244740982014 H 0.0 **** 0.06
16995 H 75.26998754906451 71.16263055567852 72.80821587813483 H 0.0 **** 0.06
16996 C 183.1325918249552 5.1382833092000055 41.65979187742475 C 0.0 **** -0.24
16997 H 183.4690508950933 4.296621526624449 41.054352019647226 H 0.0 **** 0.06
16998 H 182.29880793835395 4.822986245476642 42.28769385301878 H 0.0 **** 0.06
16999 H 182.80953603810275 5.949633885691924 41.007067666180944 H 0.0 **** 0.06
17000 H 183.95188156894847 5.483169356046801 42.28951688317932 H 0.0 **** 0.06
17001 C 31.780514416163783 149.56415566353206 130.90575550280175 C 0.0 **** -0.24
17002 H 31.96731563036701 149.70316282503933 131.9701802200251 H 0.0 **** 0.06
17003 H 32.47991478141722 148.8281111288572 130.5078054054306 H 0.0 **** 0.06
17004 H 31.917211087100952 150.5125651822019 130.38649344868443 H 0.0 **** 0.06
17005 H 30.759842778874884 149.21285146193296 130.75873706534844 H 0.0 **** 0.06
17006 C 72.94972363791784 115.649293907148 65.33710463879781 C 0.0 **** -0.24
17007 H 73.7357642846839 116.23710459089259 64.86121975589724 H 0.0 **** 0.06
17008 H 73.16565415387299 114.58780091653361 65.21414800277543 H 0.0 **** 0.06
17009 H 71.99204854176992 115.88238365245874 64.87398347026905 H 0.0 **** 0.06
17010 H 72.90882584230921 115.89136917987048 66.3995709378964 H 0.0 **** 0.06
17011 C 52.36951955348188 79.82784010248807 69.97163565415123 C 0.0 **** -0.24
17012 H 51.570100976033444 79.12049860611276 70.19048174261465 H 0.0 **** 0.06
17013 H 51.93903632050893 80.76793337701574 69.62524205608516 H 0.0 **** 0.06
17014 H 53.016828246286835 79.41675774515099 69.19650376234152 H 0.0 **** 0.06
17015 H 52.95339161607599 80.00655458406149 70.87478084729126 H 0.0 **** 0.06
17016 C 58.22183044305115 3.6603090611640425 118.13739392914988 C 0.0 **** -0.24
17017 H 57.374604534140985 4.300558652972967 118.38459509683236 H 0.0 **** 0.06
17018 H 58.382147354001916 2.9440652066361963 118.94324745885939 H 0.0 **** 0.06
17019 H 59.11419638588109 4.272756702837853 118.01127662028185 H 0.0 **** 0.06
17020 H 58.01334738773545 3.125815878014947 117.2114568358875 H 0.0 **** 0.06
17021 C 128.85139357287784 67.78488820456636 150.67124603796327 C 0.0 **** -0.24
17022 H 128.74572529978798 68.56199009591819 149.91437250512294 H 0.0 **** 0.06
17023 H 127.94116812606364 67.73519693768122 151.26990130074594 H 0.0 **** 0.06
17024 H 129.69833271373403 68.01901929185118 151.31545360303807 H 0.0 **** 0.06
17025 H 129.0194658986568 66.82424367946214 150.18461119780983 H 0.0 **** 0.06
17026 C 83.04433760788359 25.252585869571135 81.95267469388614 C 0.0 **** -0.24
17027 H 82.09317688356288 24.844395444225484 81.61078503634803 H 0.0 **** 0.06
17028 H 83.5999450172412 25.63966928732812 81.09771121699293 H 0.0 **** 0.06
17029 H 83.62351862133411 24.466625327531887 82.43660242251599 H 0.0 **** 0.06
17030 H 82.86000701793961 26.058564670043637 82.66208998978755 H 0.0 **** 0.06
17031 C 158.37775849342222 105.50311094210554 55.10850038489619 C 0.0 **** -0.24
17032 H 158.06326640823124 105.86367050786885 54.129624402606595 H 0.0 **** 0.06
17033 H 159.3881473216385 105.09825695530242 55.03836920573822 H 0.0 **** 0.06
17034 H 157.69536433186363 104.72263899585266 55.443933559571164 H 0.0 **** 0.06
17035 H 158.3655245234742 106.32799300586368 55.82146013850776 H 0.0 **** 0.06
17036 C 66.36550809904253 43.049143083522765 123.23475031290417 C 0.0 **** -0.24
17037 H 65.67094019763084 43.16166616725404 124.0667687332706 H 0.0 **** 0.06
17038 H 65.80618291969989 42.99549714492649 122.30029209695476 H 0.0 **** 0.06
17039 H 66.94404917743861 42.13435631306696 123.3659146431026 H 0.0 **** 0.06
17040 H 67.04000432318537 43.904595835372746 123.20578301936541 H 0.0 **** 0.06
17041 C 102.49544041551925 150.70380129348405 78.86148588128799 C 0.0 **** -0.24
17042 H 102.35592948310634 149.65561096559753 78.594075237168 H 0.0 **** 0.06
17043 H 102.61952464602922 151.29628713811405 77.9542800946503 H 0.0 **** 0.06
17044 H 103.38351591953045 150.80395746895115 79.485737696228 H 0.0 **** 0.06
17045 H 101.62268826344496 151.05755805564357 79.41051640898087 H 0.0 **** 0.06
17046 C 29.10177885667906 75.75704659003726 56.08583791870139 C 0.0 **** -0.24
17047 H 28.353966460812217 76.45307291999902 56.463883707376496 H 0.0 **** 0.06
17048 H 28.92467564347183 74.76765776936526 56.51026570442204 H 0.0 **** 0.06
17049 H 30.0960958648063 76.10193705668726 56.370555231453636 H 0.0 **** 0.06
17050 H 29.03362214695005 75.70376646335768 54.99926414123205 H 0.0 **** 0.06
17051 C 197.43214653722862 105.84549253648856 85.72729577392752 C 0.0 **** -0.24
17052 H 197.39358177710338 106.23749792626882 84.71081103603913 H 0.0 **** 0.06
17053 H 196.48299610345703 105.36755222641659 85.96842889588152 H 0.0 **** 0.06
17054 H 197.61511420729147 106.66418809635172 86.42447446763336 H 0.0 **** 0.06
17055 H 198.23778240827025 105.1157307180797 85.80500165542901 H 0.0 **** 0.06
17056 C 37.40348679643526 175.7213038561236 163.12254718389454 C 0.0 **** -0.24
17057 H 38.04487280269092 175.99161037525366 163.96080909875081 H 0.0 **** 0.06
17058 H 36.500073225643646 176.33040030951676 163.14502168815486 H 0.0 **** 0.06
17059 H 37.1342376985301 174.6672952670143 163.19632059596705 H 0.0 **** 0.06
17060 H 37.93622124557979 175.8954351099992 162.18723118721616 H 0.0 **** 0.06
17061 C 21.56233654996764 76.50767225588476 65.8257110654037 C 0.0 **** -0.24
17062 H 21.689158084589835 76.69570733361462 64.7584047158136 H 0.0 **** 0.06
17063 H 21.087294175467463 77.37086421279032 66.2913902037939 H 0.0 **** 0.06
17064 H 22.537666355925623 76.33769578968345 66.2823295768055 H 0.0 **** 0.06
17065 H 20.935838226390587 75.62717590595567 65.9661307842966 H 0.0 **** 0.06
17066 C 74.76796455244241 75.77273119177227 14.458359057135112 C 0.0 **** -0.24
17067 H 73.7439281065992 75.67751823650275 14.820358431831323 H 0.0 **** 0.06
17068 H 74.79065347865303 75.58440397777122 13.384242773796387 H 0.0 **** 0.06
17069 H 75.40176720000578 75.04711377420847 14.96791596728903 H 0.0 **** 0.06
17070 H 75.13221417450099 76.77950139448234 14.660254155709936 H 0.0 **** 0.06
17071 C 184.63458036170226 20.401227751997396 126.39526255630582 C 0.0 **** -0.24
17072 H 184.83011160796244 20.663788286388126 125.35491828166451 H 0.0 **** 0.06
17073 H 185.37262321565146 19.67236881352926 126.7309008833063 H 0.0 **** 0.06
17074 H 183.63653892488674 19.97142553545541 126.47900037020648 H 0.0 **** 0.06
17075 H 184.6981723823899 21.296420371017717 127.01413081270698 H 0.0 **** 0.06
17076 C 97.06866109358896 0.20016492605842018 85.98768190867023 C 0.0 **** -0.24
17077 H 97.75108222627745 0.777887124631178 86.61083609052565 H 0.0 **** 0.06
17078 H 97.2522402887844 0.43119428931123593 84.93864674109054 H 0.0 **** 0.06
17079 H 96.04042141666568 0.4568556511228792 86.24237332851268 H 0.0 **** 0.06
17080 H 97.23219158468635 -0.8637478481909966 86.16086990298496 H 0.0 **** 0.06
17081 C 136.3921980960831 60.02775930641725 89.53906145710633 C 0.0 **** -0.24
17082 H 136.62236953669225 59.73035988059779 90.56196192351831 H 0.0 **** 0.06
17083 H 135.38256482325676 60.43576061403364 89.49756136420032 H 0.0 **** 0.06
17084 H 136.46054526283123 59.15901790445896 88.884927139273 H 0.0 **** 0.06
17085 H 137.1047724897384 60.786069651925885 89.21348066711215 H 0.0 **** 0.06
17086 C 71.13409795351299 178.35534635542075 137.72893381558083 C 0.0 **** -0.24
17087 H 70.5674923110264 178.05493702201557 138.61102677449608 H 0.0 **** 0.06
17088 H 70.60507450588794 178.0360186897723 136.83124583692972 H 0.0 **** 0.06
17089 H 72.1190228775337 177.88900041913044 137.75602713827848 H 0.0 **** 0.06
17090 H 71.24482885985456 179.43890329753557 137.72000823961247 H 0.0 **** 0.06
17091 C 43.663928428857545 144.19733728066046 87.78556141341426 C 0.0 **** -0.24
17092 H 44.079996897814254 143.90915176721907 86.82009684892574 H 0.0 **** 0.06
17093 H 44.23124085529156 143.71644247518338 88.58282140407735 H 0.0 **** 0.06
17094 H 42.622194502247154 143.88362449197524 87.84053743779288 H 0.0 **** 0.06
17095 H 43.72368576324803 145.28022088159406 87.89864929731664 H 0.0 **** 0.06
17096 C 66.02129133041132 194.37430436106752 31.56596384003251 C 0.0 **** -0.24
17097 H 66.97059276777111 194.49492450356286 31.043994256481625 H 0.0 **** 0.06
17098 H 65.6247716808864 193.37762994382445 31.372335444900045 H 0.0 **** 0.06
17099 H 65.3129674989822 195.1221962642553 31.210520851309894 H 0.0 **** 0.06
17100 H 66.17711045141095 194.5015301649022 32.637219494709086 H 0.0 **** 0.06
17101 C 137.99762422584266 166.30479917040134 150.58949503320804 C 0.0 **** -0.24
17102 H 137.23289114168597 166.8725508054357 150.0591243319043 H 0.0 **** 0.06
17103 H 138.94175142717316 166.37625054284723 150.05012299433443 H 0.0 **** 0.06
17104 H 137.69432179873607 165.259916213924 150.65450983992966 H 0.0 **** 0.06
17105 H 138.1202505122953 166.71010726548158 151.59375586528944 H 0.0 **** 0.06
17106 C 149.00710269585082 56.560064892393314 121.69926838448464 C 0.0 **** -0.24
17107 H 148.90114495100906 56.35609021856885 122.76494468601854 H 0.0 **** 0.06
17108 H 150.02490173644344 56.89014573815888 121.49169808952178 H 0.0 **** 0.06
17109 H 148.30507643631066 57.34094382680837 121.40749296514636 H 0.0 **** 0.06
17110 H 148.79518477595263 55.652387566555376 121.13325215448549 H 0.0 **** 0.06
17111 C 16.939279899172107 35.30321068997179 90.32795331679563 C 0.0 **** -0.24
17112 H 16.229616188904004 35.946181491442616 89.80701411131312 H 0.0 **** 0.06
17113 H 16.910233729954456 34.30414129551997 89.89234413275969 H 0.0 **** 0.06
17114 H 16.673335155650364 35.248744763726876 91.38281515722139 H 0.0 **** 0.06
17115 H 17.944196626774044 35.715240576005186 90.22703521699603 H 0.0 **** 0.06
17116 C 28.997825730027643 58.50308227636421 101.2642656579383 C 0.0 **** -0.24
17117 H 29.0472764020776 58.536631621623414 100.17606726283029 H 0.0 **** 0.06
17118 H 29.41049633777942 57.55726778747996 101.61686121643297 H 0.0 **** 0.06
17119 H 27.958502330312925 58.58869969211921 101.58336162804656 H 0.0 **** 0.06
17120 H 29.574226890572177 59.328847271126506 101.68001141368674 H 0.0 **** 0.06
17121 C 45.59598936979856 91.97459297585047 59.197724993615054 C 0.0 **** -0.24
17122 H 44.888383695700114 91.5403424487383 58.4903096934558 H 0.0 **** 0.06
17123 H 45.067304479670995 92.26940189294442 60.104117661711825 H 0.0 **** 0.06
17124 H 46.06593302544445 92.8502573827084 58.74891934508116 H 0.0 **** 0.06
17125 H 46.36057558105071 91.23868108443966 59.44514423347209 H 0.0 **** 0.06
17126 C 65.90937195735381 158.4416297331125 173.10254039714252 C 0.0 **** -0.24
17127 H 65.40370197900461 159.0038632946069 172.3170991255257 H 0.0 **** 0.06
17128 H 66.03914488279221 157.4073315608757 172.78326783221345 H 0.0 **** 0.06
17129 H 65.30962258714334 158.46893989745573 174.01208452572268 H 0.0 **** 0.06
17130 H 66.88488288137336 158.88734285876467 173.2979602964354 H 0.0 **** 0.06
17131 C 172.43526168153068 87.61763553333046 44.821381942996936 C 0.0 **** -0.24
17132 H 173.49267224489157 87.69552868226364 45.07587410106498 H 0.0 **** 0.06
17133 H 171.8778433694584 88.3897841381033 45.35295984899375 H 0.0 **** 0.06
17134 H 172.06278288284958 86.63584483661197 45.11172179526082 H 0.0 **** 0.06
17135 H 172.30857920556056 87.75253944334008 43.74749314319871 H 0.0 **** 0.06
17136 C 61.61147406339697 20.516158090932663 90.9201007796648 C 0.0 **** -0.24
17137 H 60.956795393260876 20.976798287292297 90.17949956697302 H 0.0 **** 0.06
17138 H 61.23559432869264 20.732286850846492 91.9200405086666 H 0.0 **** 0.06
17139 H 62.61870609265634 20.918418126567673 90.81511902385145 H 0.0 **** 0.06
17140 H 61.63254268337329 19.43790250713647 90.76519219562579 H 0.0 **** 0.06
17141 C 43.82540161072487 35.01238716038961 84.09498978396226 C 0.0 **** -0.24
17142 H 43.419032722939846 34.00806847145054 84.21147138925585 H 0.0 **** 0.06
17143 H 44.783795151749686 35.07833343267595 84.61047751676858 H 0.0 **** 0.06
17144 H 43.13208898029785 35.737446172777936 84.52190748007871 H 0.0 **** 0.06
17145 H 43.96718901138888 35.22686049030375 83.035466202881 H 0.0 **** 0.06
17146 C 137.8562570243103 168.81453443749746 168.01316342074801 C 0.0 **** -0.24
17147 H 138.87636830931402 169.09584565610044 167.74960380483896 H 0.0 **** 0.06
17148 H 137.15491803025398 169.36619198148765 167.38686935295277 H 0.0 **** 0.06
17149 H 137.67345500612822 169.05288695491845 169.06117066860077 H 0.0 **** 0.06
17150 H 137.72294538792286 167.74458410686742 167.85478106641995 H 0.0 **** 0.06
17151 C 140.12194873057132 88.60617815195292 48.252106019135724 C 0.0 **** -0.24
17152 H 140.9017494881076 88.85878183876957 47.53450110602569 H 0.0 **** 0.06
17153 H 139.52052313791884 87.78478343960717 47.86168101842546 H 0.0 **** 0.06
17154 H 139.48600095551987 89.47596753726793 48.41880499626062 H 0.0 **** 0.06
17155 H 140.5791962980066 88.3053248156429 49.194805662756195 H 0.0 **** 0.06
17156 C 150.60920002208766 101.90397035699914 74.25675858438528 C 0.0 **** -0.24
17157 H 150.80287098699978 101.49277054955792 75.24734273154678 H 0.0 **** 0.06
17158 H 151.2521892410516 102.76763367466572 74.08887407622639 H 0.0 **** 0.06
17159 H 149.56430947746207 102.20856401512867 74.18831035202705 H 0.0 **** 0.06
17160 H 150.81565651404972 101.14429566561068 73.50255385600843 H 0.0 **** 0.06
17161 C 59.60669779794097 134.153812259422 182.4249041834861 C 0.0 **** -0.24
17162 H 59.759526379372005 134.99373142204328 181.74810075489466 H 0.0 **** 0.06
17163 H 59.285010733461604 133.28159169416332 181.85635481237014 H 0.0 **** 0.06
17164 H 58.84121184436461 134.41309519277553 183.15722332677865 H 0.0 **** 0.06
17165 H 60.54053368102592 133.92800134470184 182.94065284009199 H 0.0 **** 0.06
17166 C 79.8782721731308 28.90000739806048 155.0019286023048 C 0.0 **** -0.24
17167 H 79.07949084388153 28.210614263044576 154.73093017677166 H 0.0 **** 0.06
17168 H 80.73048365479343 28.336527618289836 155.38382759873087 H 0.0 **** 0.06
17169 H 79.52086454244164 29.58453003861213 155.77202486227134 H 0.0 **** 0.06
17170 H 80.18157975663976 29.4677354987475 154.12297242064616 H 0.0 **** 0.06
17171 C 165.0125698182971 10.010262601597752 142.62612210311895 C 0.0 **** -0.24
17172 H 164.52457707555487 10.91326454113598 142.99421758381266 H 0.0 **** 0.06
17173 H 165.82349906227284 9.735253133141157 143.30136299295117 H 0.0 **** 0.06
17174 H 165.41546081736686 10.195177497969958 141.63081462009904 H 0.0 **** 0.06
17175 H 164.28612706038123 9.198934157235733 142.57955217689548 H 0.0 **** 0.06
17176 C 111.14126317647518 114.00943191453928 77.34690393185504 C 0.0 **** -0.24
17177 H 110.83615164723955 113.04094360761334 76.95282272346451 H 0.0 **** 0.06
17178 H 110.5448802463217 114.79542409564078 76.88219929189393 H 0.0 **** 0.06
17179 H 112.1963531802715 114.17606343291379 77.12782923644886 H 0.0 **** 0.06
17180 H 110.98742503389786 114.02571308100346 78.42642811306308 H 0.0 **** 0.06
17181 C 158.87675788852135 65.34185403497679 28.717148826206937 C 0.0 **** -0.24
17182 H 158.01460888778416 66.0060939873112 28.64126657844622 H 0.0 **** 0.06
17183 H 158.95136540386414 64.95896175714921 29.734981280850036 H 0.0 **** 0.06
17184 H 159.78279819329347 65.89491258908345 28.469849653788458 H 0.0 **** 0.06
17185 H 158.75633994038787 64.51062910900976 28.022941143664013 H 0.0 **** 0.06
17186 C 15.099445641143006 46.10369712477504 107.17929815953823 C 0.0 **** -0.24
17187 H 14.419186381997946 46.19479656042515 108.02683750553524 H 0.0 **** 0.06
17188 H 15.829589864380921 46.912972803879114 107.21145390202082 H 0.0 **** 0.06
17189 H 14.532043720638967 46.16179215172431 106.25074730021731 H 0.0 **** 0.06
17190 H 15.61662566190489 45.145001256657565 107.23056963972772 H 0.0 **** 0.06
17191 C 141.32766484199874 170.7771830366904 198.94322935975177 C 0.0 **** -0.24
17192 H 140.82522482968832 171.61244483123045 199.4317531209392 H 0.0 **** 0.06
17193 H 142.1755612060597 171.1499809900874 198.36943052432042 H 0.0 **** 0.06
17194 H 140.62782194337532 170.2750266138192 198.2748391001095 H 0.0 **** 0.06
17195 H 141.67860492775938 170.0733028975641 199.69790908603795 H 0.0 **** 0.06
17196 C 197.10225662938075 36.05402934834868 156.44704436008976 C 0.0 **** -0.24
17197 H 197.8282710599501 36.81326716118444 156.15629245222655 H 0.0 **** 0.06
17198 H 196.1578365593945 36.53410368837416 156.7009774525144 H 0.0 **** 0.06
17199 H 197.4769686231695 35.507417927611726 157.31259942173602 H 0.0 **** 0.06
17200 H 196.94920842880921 35.36279439657008 155.61941997017817 H 0.0 **** 0.06
17201 C 4.542746500585565 63.297772604431486 137.40957816545563 C 0.0 **** -0.24
17202 H 4.010226277502369 62.41896120068816 137.77148337983965 H 0.0 **** 0.06
17203 H 4.982237778912733 63.08016228799727 136.4351794334455 H 0.0 **** 0.06
17204 H 5.332269237039036 63.559451299329226 138.1138606271378 H 0.0 **** 0.06
17205 H 3.8469027567860437 64.13217978260343 137.3165789785794 H 0.0 **** 0.06
17206 C 159.63524388526753 198.0604578648406 20.1782003528472 C 0.0 **** -0.24
17207 H 160.50247417025173 198.00861696420714 20.836570187251127 H 0.0 **** 0.06
17208 H 158.73008662498233 197.87534539636147 20.755832910594506 H 0.0 **** 0.06
17209 H 159.72768587845795 197.30822417425765 19.39472499404819 H 0.0 **** 0.06
17210 H 159.58151886693219 199.0511830419823 19.7255725212963 H 0.0 **** 0.06
17211 C 63.885429042600606 6.827879898002806 176.8540734578702 C 0.0 **** -0.24
17212 H 64.3099304300896 6.763182955852443 175.85210311649703 H 0.0 **** 0.06
17213 H 63.18740801882592 6.003816915919543 177.00610491150417 H 0.0 **** 0.06
17214 H 63.359441176478356 7.775077239498046 176.96601811389482 H 0.0 **** 0.06
17215 H 64.68505606899004 6.766996146128463 177.59203176354015 H 0.0 **** 0.06
17216 C 131.25306207029567 38.75562775562953 42.46347075042178 C 0.0 **** -0.24
17217 H 131.79076912185351 39.693483918177236 42.60283583901257 H 0.0 **** 0.06
17218 H 130.7125651391052 38.78488356794627 41.51691178984889 H 0.0 **** 0.06
17219 H 130.54606860546158 38.6162150629452 43.28153678253638 H 0.0 **** 0.06
17220 H 131.9624276538942 37.92857059857376 42.45195580510085 H 0.0 **** 0.06
17221 C 124.3456286671825 115.24579929697845 79.22911319055555 C 0.0 **** -0.24
17222 H 123.572659553883 115.3244216397415 79.99361888711718 H 0.0 **** 0.06
17223 H 125.02838521193675 114.43467416873008 79.48514100602614 H 0.0 **** 0.06
17224 H 124.89948304732204 116.1832465046902 79.1748015938216 H 0.0 **** 0.06
17225 H 123.88329204497637 115.04065064135088 78.26339606492883 H 0.0 **** 0.06
17226 C 199.18294227598432 28.062680126739593 52.6211115248811 C 0.0 **** -0.24
17227 H 199.30905007561648 27.742933381148163 51.58690771730744 H 0.0 **** 0.06
17228 H 199.89795849468828 27.53642965009658 53.25348161009315 H 0.0 **** 0.06
17229 H 198.16962524899805 27.83497096213202 52.95083535767331 H 0.0 **** 0.06
17230 H 199.35513528463446 29.136386513581627 52.69322141445038 H 0.0 **** 0.06
17231 C 100.20041117702382 175.86260945553812 88.79025836538807 C 0.0 **** -0.24
17232 H 100.39689086923673 176.36386098580803 89.73729283501308 H 0.0 **** 0.06
17233 H 101.11470290621929 175.8321105671074 88.19786311949994 H 0.0 **** 0.06
17234 H 99.43118452173792 176.4091668131686 88.24333229952319 H 0.0 **** 0.06
17235 H 99.85664218657107 174.84620795728304 88.98074864239877 H 0.0 **** 0.06
17236 C 165.6569141905486 76.83234320374342 154.86808276172832 C 0.0 **** -0.24
17237 H 164.59063978981936 76.87249627805201 154.64399052679485 H 0.0 **** 0.06
17238 H 166.13429441585953 77.75113243863166 154.52752859073198 H 0.0 **** 0.06
17239 H 166.1029848947871 75.97851644980751 154.35664604514 H 0.0 **** 0.06
17240 H 165.79756672492528 76.72529553264407 155.9434214674719 H 0.0 **** 0.06
17241 C 50.44244485643 38.957709677835 172.89864407638416 C 0.0 **** -0.24
17242 H 49.74702410369079 39.02544809486636 172.06234917939497 H 0.0 **** 0.06
17243 H 50.57077983338621 39.94338212729224 173.34613892782806 H 0.0 **** 0.06
17244 H 51.40589514333432 38.59246650151215 172.54086386101008 H 0.0 **** 0.06
17245 H 50.047858667413564 38.268184876933844 173.64422636403563 H 0.0 **** 0.06
17246 C 87.67340769757345 16.19458392819196 24.44105765361678 C 0.0 **** -0.24
17247 H 86.75103316281206 16.643959080945038 24.0740796480666 H 0.0 **** 0.06
17248 H 88.51388574985924 16.55545665239886 23.846581207777035 H 0.0 **** 0.06
17249 H 87.60841196418608 15.110063882595313 24.357790065472898 H 0.0 **** 0.06
17250 H 87.82167009532071 16.471393518212977 25.484952475601233 H 0.0 **** 0.06
17251 C 59.46943523772484 177.02165207089763 54.342845419881314 C 0.0 **** -0.24
17252 H 58.508606911565664 177.24439139974007 53.87795100253423 H 0.0 **** 0.06
17253 H 59.44571150283792 177.32377889962123 55.389447649491885 H 0.0 **** 0.06
17254 H 60.257830898064185 177.56621689294997 53.824404397506285 H 0.0 **** 0.06
17255 H 59.664275587364045 175.95075325364948 54.277106044615735 H 0.0 **** 0.06
17256 C 175.0076438952994 29.191949063155306 174.16588070883222 C 0.0 **** -0.24
17257 H 174.15836847855144 28.890466262912327 173.55271020172324 H 0.0 **** 0.06
17258 H 174.82584498515166 28.908305069688765 175.2027369832546 H 0.0 **** 0.06
17259 H 175.13653401879463 30.272778876703057 174.1016860800168 H 0.0 **** 0.06
17260 H 175.90980568954578 28.697013971944585 173.80702973052493 H 0.0 **** 0.06
17261 C 127.85168525870779 34.35804396731692 180.38947977385328 C 0.0 **** -0.24
17262 H 127.61920262786398 33.683357449022935 181.21304009206997 H 0.0 **** 0.06
17263 H 126.9250705701011 34.75093262303352 179.9685540680931 H 0.0 **** 0.06
17264 H 128.40030999713892 33.81681186714599 179.61995891719874 H 0.0 **** 0.06
17265 H 128.46099117564876 35.183236291632426 180.75808743663245 H 0.0 **** 0.06
17266 C 69.68956089066666 194.47844709453065 41.66202520546382 C 0.0 **** -0.24
17267 H 70.28680251157851 195.01294531753422 42.39996406001829 H 0.0 **** 0.06
17268 H 70.13266087219367 193.50003010388158 41.476638369285595 H 0.0 **** 0.06
17269 H 69.6659675919671 195.04865849876182 40.732551684669914 H 0.0 **** 0.06
17270 H 68.674128400206 194.35367393910752 42.03796695255686 H 0.0 **** 0.06
17271 C 189.0866443154846 55.04825352886485 59.23535617902553 C 0.0 **** -0.24
17272 H 188.1080704276493 55.50702149947361 59.37678028217333 H 0.0 **** 0.06
17273 H 189.79514280264152 55.477643966985966 59.944499642701686 H 0.0 **** 0.06
17274 H 189.43138649727683 55.23487738221755 58.21808332633974 H 0.0 **** 0.06
17275 H 189.01197753437071 53.97347126678228 59.40206146488754 H 0.0 **** 0.06
17276 C 81.79160886906146 48.92955949807288 36.1338477065826 C 0.0 **** -0.24
17277 H 82.52041606554576 48.82799636740336 36.93760990421701 H 0.0 **** 0.06
17278 H 82.10561047962585 48.328885155320535 35.27984067000219 H 0.0 **** 0.06
17279 H 81.72166103350736 49.97612785306052 35.83613362101822 H 0.0 **** 0.06
17280 H 80.81733820510846 48.58530839990041 36.481726350235306 H 0.0 **** 0.06
17281 C 22.60711459490281 106.15327082952001 154.06772363157384 C 0.0 **** -0.24
17282 H 23.01011056298455 106.99893481094486 154.62487563932737 H 0.0 **** 0.06
17283 H 23.179185641208505 106.01635205342478 153.15058862054548 H 0.0 **** 0.06
17284 H 21.562504376582808 106.34572769629744 153.81991208576628 H 0.0 **** 0.06
17285 H 22.674997745588456 105.25216071507305 154.6773170404914 H 0.0 **** 0.06
17286 C 155.17391684349528 96.99089994951808 56.19297689653865 C 0.0 **** -0.24
17287 H 154.37172994051102 96.34056196973006 56.54094292153934 H 0.0 **** 0.06
17288 H 155.83358681516802 96.43161773099746 55.52949998498701 H 0.0 **** 0.06
17289 H 155.7418797810721 97.35556528104976 57.04829201903158 H 0.0 **** 0.06
17290 H 154.74679211836093 97.8359059547875 55.65274916010844 H 0.0 **** 0.06
17291 C 184.7539843509167 18.688835944919788 39.15580357551568 C 0.0 **** -0.24
17292 H 183.70456510894337 18.590281501588777 39.43172192843838 H 0.0 **** 0.06
17293 H 184.94418875071887 18.12170247735537 38.243961690141646 H 0.0 **** 0.06
17294 H 185.37904756956627 18.302873321708717 39.96115226513467 H 0.0 **** 0.06
17295 H 184.9885395901279 19.739136863639402 38.98650362184975 H 0.0 **** 0.06
17296 C 124.84545117439066 15.43704060923534 34.57836015928258 C 0.0 **** -0.24
17297 H 123.9915367476971 14.902260992991955 34.9932608449475 H 0.0 **** 0.06
17298 H 125.68148441456682 14.7483403144048 34.456315050040175 H 0.0 **** 0.06
17299 H 125.13277214182867 16.243062575311868 35.253970214389 H 0.0 **** 0.06
17300 H 124.57565256260395 15.855691595486476 33.608037648365894 H 0.0 **** 0.06
17301 C 133.13606330257176 34.138483130975075 103.15949714843762 C 0.0 **** -0.24
17302 H 133.725436077106 33.963923337283006 102.25947921070386 H 0.0 **** 0.06
17303 H 133.5971647532349 34.93167055079128 103.74716272524509 H 0.0 **** 0.06
17304 H 133.0971716768638 33.222890586365494 103.75109705801734 H 0.0 **** 0.06
17305 H 132.12512483130092 34.43335306183782 102.87980661696116 H 0.0 **** 0.06
17306 C 53.46914282779596 147.8788120141294 36.14448820728545 C 0.0 **** -0.24
17307 H 52.92802261777706 148.1499645221867 35.237954744701426 H 0.0 **** 0.06
17308 H 52.76457537746779 147.51538061725276 36.893176413502786 H 0.0 **** 0.06
17309 H 53.99191510538077 148.75386047927628 36.53090251396101 H 0.0 **** 0.06
17310 H 54.19287316923311 147.09549849196665 35.91489934889654 H 0.0 **** 0.06
17311 C 176.38821807724122 148.55948176939717 122.91979995969746 C 0.0 **** -0.24
17312 H 176.98490216815122 147.6739597452405 122.69945355883408 H 0.0 **** 0.06
17313 H 176.8032693113231 149.07056310023947 123.78831997796124 H 0.0 **** 0.06
17314 H 175.36095099756193 148.26149179051714 123.13030176011262 H 0.0 **** 0.06
17315 H 176.4033039116805 149.23029580818587 122.06155780440577 H 0.0 **** 0.06
17316 C 146.12832058082344 185.51070570821818 25.081830904650786 C 0.0 **** -0.24
17317 H 146.6929092118705 185.7986984173177 24.195286743320935 H 0.0 **** 0.06
17318 H 145.3524697724357 184.7978194204676 24.803156650557924 H 0.0 **** 0.06
17319 H 145.668211812132 186.39540737417644 25.52293246242084 H 0.0 **** 0.06
17320 H 146.79999891860516 185.05114825094037 25.80763381086473 H 0.0 **** 0.06
17321 C 166.66677347515053 55.76538183303393 69.98523906922782 C 0.0 **** -0.24
17322 H 167.12576827629653 55.202248107938374 70.79740398320916 H 0.0 **** 0.06
17323 H 165.91260877225102 55.14802582330816 69.49612674820987 H 0.0 **** 0.06
17324 H 167.43120671939516 56.04823288529343 69.26200482975354 H 0.0 **** 0.06
17325 H 166.19624503708803 56.662971240550235 70.38726386881109 H 0.0 **** 0.06
17326 C 55.15236443792455 173.89528482761114 169.05163173333102 C 0.0 **** -0.24
17327 H 55.67439617378551 174.84725195325296 169.15557966442148 H 0.0 **** 0.06
17328 H 55.87050226060771 173.0785321936736 169.1210066170554 H 0.0 **** 0.06
17329 H 54.65241451105122 173.85915593327056 168.08413473657637 H 0.0 **** 0.06
17330 H 54.41320132930181 173.79936233615 169.8475026246544 H 0.0 **** 0.06
17331 C 170.66184869391023 140.94759500601302 94.0836925614733 C 0.0 **** -0.24
17332 H 171.33009224193293 141.45342557595964 94.78022444579591 H 0.0 **** 0.06
17333 H 170.94374589943334 139.89748755043536 94.00564140186759 H 0.0 **** 0.06
17334 H 170.7362999691756 141.4181198232014 93.10352212883026 H 0.0 **** 0.06
17335 H 169.63618421002244 141.0222662456218 94.44531150423097 H 0.0 **** 0.06
17336 C 135.04675011220934 185.99088817756189 180.270128404782 C 0.0 **** -0.24
17337 H 136.10289275859526 186.046331870494 180.00847717639354 H 0.0 **** 0.06
17338 H 134.9464761115671 185.79634409772768 181.3388666568329 H 0.0 **** 0.06
17339 H 134.5752822314098 185.18401503402052 179.70832019162674 H 0.0 **** 0.06
17340 H 134.56145578990606 186.9359766838832 180.02549637923337 H 0.0 **** 0.06
17341 C 137.0438078459064 12.04903783690554 10.086288861024599 C 0.0 **** -0.24
17342 H 137.0561296703878 10.960456207007809 10.039035557110992 H 0.0 **** 0.06
17343 H 136.5933372642322 12.365549873817997 11.026979068104964 H 0.0 **** 0.06
17344 H 136.46033454905958 12.442515730615014 9.254141798650153 H 0.0 **** 0.06
17345 H 138.0640977100826 12.427637550653344 10.026794936159888 H 0.0 **** 0.06
17346 C 166.00195112646009 196.9339753038011 30.947834065601967 C 0.0 **** -0.24
17347 H 165.06799740826057 196.41412184528218 31.163701011124814 H 0.0 **** 0.06
17348 H 166.35962469469592 196.64327172139122 29.960131820100216 H 0.0 **** 0.06
17349 H 166.74750744705915 196.6674281742961 31.69749072025084 H 0.0 **** 0.06
17350 H 165.83184121269448 198.01089274379925 30.971139674716056 H 0.0 **** 0.06
17351 C 168.22116320550873 171.08334334343618 62.54413409226859 C 0.0 **** -0.24
17352 H 168.20979120274924 171.99026718330236 61.93922788607949 H 0.0 **** 0.06
17353 H 167.78203065957223 170.26246023930045 61.976931989560285 H 0.0 **** 0.06
17354 H 167.6427215606471 171.24649388658497 63.45340184352091 H 0.0 **** 0.06
17355 H 169.24948294503926 170.83448689256488 62.80767854420543 H 0.0 **** 0.06
17356 C 118.20980290337596 190.65233411991517 142.3541043452931 C 0.0 **** -0.24
17357 H 117.38066481775661 190.90561356841266 141.69321839105106 H 0.0 **** 0.06
17358 H 118.80061397468694 189.85405277429714 141.90405893670635 H 0.0 **** 0.06
17359 H 117.81826635579256 190.31783609505842 143.31439850306373 H 0.0 **** 0.06
17360 H 118.8370034812547 191.53095392691543 142.5029711968388 H 0.0 **** 0.06
17361 C 49.80831827415466 19.58423489905752 133.6471515858125 C 0.0 **** -0.24
17362 H 49.77530160038452 19.9691668972186 134.66598028608118 H 0.0 **** 0.06
17363 H 50.82307452860232 19.261400543977118 133.41364481141377 H 0.0 **** 0.06
17364 H 49.50815577985554 20.369640197737738 132.9525720697001 H 0.0 **** 0.06
17365 H 49.126666374591196 18.739497999708135 133.55582301455908 H 0.0 **** 0.06
17366 C 57.603789114303936 15.710430703910106 189.6190691212542 C 0.0 **** -0.24
17367 H 58.58698681141885 15.480513389717089 189.21160385332533 H 0.0 **** 0.06
17368 H 57.50036249639828 16.78934863640754 189.7338981620785 H 0.0 **** 0.06
17369 H 57.491854598113434 15.228972390635533 190.59107439959507 H 0.0 **** 0.06
17370 H 56.834346422570775 15.341643383579651 188.94063301992958 H 0.0 **** 0.06
17371 C 195.2701931530544 41.83696815521506 173.6575169963254 C 0.0 **** -0.24
17372 H 195.9390414178198 42.4548536078226 173.0581946678705 H 0.0 **** 0.06
17373 H 194.26594798875726 42.26064506010577 173.63495105724243 H 0.0 **** 0.06
17374 H 195.62903472461613 41.805620430767505 174.68571965345728 H 0.0 **** 0.06
17375 H 195.24682439587576 40.82599470506538 173.24935368271653 H 0.0 **** 0.06
17376 C 4.5042651195339545 69.88091451172102 7.331335319472338 C 0.0 **** -0.24
17377 H 5.048853328180485 70.19463792119677 8.221704332968109 H 0.0 **** 0.06
17378 H 5.1268690554383625 70.03683646343268 6.450503122032707 H 0.0 **** 0.06
17379 H 3.590315228914619 70.466465146127 7.239570937874802 H 0.0 **** 0.06
17380 H 4.252157210717883 68.82339236833195 7.415080281515223 H 0.0 **** 0.06
17381 C 196.9278869505901 198.43313887591057 17.08659971685512 C 0.0 **** -0.24
17382 H 197.82737910780514 198.95168646082368 17.417255015487797 H 0.0 **** 0.06
17383 H 196.15677866567074 199.16385408440772 16.84091089554053 H 0.0 **** 0.06
17384 H 196.57021174085537 197.78067122130932 17.882809535574665 H 0.0 **** 0.06
17385 H 197.15631951019276 197.83671404917587 16.203159464259613 H 0.0 **** 0.06
17386 C 177.65099624090598 193.54060259084903 16.68925162311126 C 0.0 **** -0.24
17387 H 178.21797528120618 192.6107760124222 16.673222110300486 H 0.0 **** 0.06
17388 H 176.71707913183417 193.4067209813935 16.142623551923236 H 0.0 **** 0.06
17389 H 178.2367411459101 194.3315619505665 16.220154730973434 H 0.0 **** 0.06
17390 H 177.43151062338808 193.8145658870496 17.72075239353319 H 0.0 **** 0.06
17391 C 178.4983494412003 20.72324891107324 184.8711767663731 C 0.0 **** -0.24
17392 H 179.1206955497067 20.233838363562157 185.62132298611158 H 0.0 **** 0.06
17393 H 178.25981194780883 20.013542759182897 184.07843485096288 H 0.0 **** 0.06
17394 H 179.03778959732446 21.571754183742 184.44996208414372 H 0.0 **** 0.06
17395 H 177.57690210032249 21.072862317349987 185.3358582997752 H 0.0 **** 0.06
17396 C 20.615554681267497 90.22181302836395 37.33803325948969 C 0.0 **** -0.24
17397 H 19.832453305727086 90.86567302657116 37.738548206929664 H 0.0 **** 0.06
17398 H 20.775954030978255 90.45769724717383 36.285640564958726 H 0.0 **** 0.06
17399 H 20.313599118546847 89.17951141730833 37.435894648260955 H 0.0 **** 0.06
17400 H 21.539339561312545 90.38631339961509 37.89273029945258 H 0.0 **** 0.06
17401 C 67.52000084809458 149.2075559150734 50.561538809514886 C 0.0 **** -0.24
17402 H 66.67968816101506 149.84557318965324 50.28537172793277 H 0.0 **** 0.06
17403 H 68.45050759734363 149.7598705298858 50.435564965934915 H 0.0 **** 0.06
17404 H 67.53129706226946 148.32489625720035 49.92032585326838 H 0.0 **** 0.06
17405 H 67.41606808839401 148.90027955253612 51.60130410157355 H 0.0 **** 0.06
17406 C 153.33873204579254 17.528471271779566 88.8763743756628 C 0.0 **** -0.24
17407 H 153.44172721863694 16.653638288318078 88.23464708136956 H 0.0 **** 0.06
17408 H 152.35317940696513 17.96948215105182 88.733454669736 H 0.0 **** 0.06
17409 H 154.10609182615605 18.2588969717729 88.6193686298923 H 0.0 **** 0.06
17410 H 153.45659116840952 17.22989086230669 89.91793121226013 H 0.0 **** 0.06
17411 C 195.6647238567136 96.49215173348023 184.1620096733921 C 0.0 **** -0.24
17412 H 196.02002792221538 96.16351944027048 183.18592182122933 H 0.0 **** 0.06
17413 H 196.32162845734578 97.27486062558069 184.54258402552378 H 0.0 **** 0.06
17414 H 195.66618259568696 95.64881193542567 184.85180059561247 H 0.0 **** 0.06
17415 H 194.65123260125893 96.88261114826662 184.06649204785887 H 0.0 **** 0.06
17416 C 133.48409772963856 168.75527864540842 187.42290992512005 C 0.0 **** -0.24
17417 H 133.7409253752861 167.95213183824632 188.11352301915838 H 0.0 **** 0.06
17418 H 133.39403817933015 169.69204416632886 187.97225435604975 H 0.0 **** 0.06
17419 H 132.53465233294517 168.52643287064896 186.93701922607988 H 0.0 **** 0.06
17420 H 134.26453955030527 168.84970538152467 186.66824123884732 H 0.0 **** 0.06
17421 C 83.80833818738117 20.64391690552344 192.2110222802531 C 0.0 **** -0.24
17422 H 84.50266082783841 19.855844637442203 191.9179047709468 H 0.0 **** 0.06
17423 H 84.20854731095426 21.611395360986194 191.9071163944311 H 0.0 **** 0.06
17424 H 83.67716022952888 20.62791382209832 193.29274309257974 H 0.0 **** 0.06
17425 H 82.84620640706234 20.478680318539773 191.72594394197216 H 0.0 **** 0.06
17426 C 31.161787055919277 144.31291339238098 91.22280131479204 C 0.0 **** -0.24
17427 H 31.28069868873068 144.92833946977765 92.11402206684454 H 0.0 **** 0.06
17428 H 31.231794639192273 144.942453083381 90.33570864815078 H 0.0 **** 0.06
17429 H 30.18773321178702 143.8244846774938 91.24663778728848 H 0.0 **** 0.06
17430 H 31.946362366334156 143.55738626120882 91.19565361910747 H 0.0 **** 0.06
17431 C 165.48083620185076 177.87601957948075 184.44885543906668 C 0.0 **** -0.24
17432 H 165.94864025929758 178.4347531525512 183.63834212188607 H 0.0 **** 0.06
17433 H 166.1303010627409 177.893783893471 185.32466508098412 H 0.0 **** 0.06
17434 H 165.3230034854081 176.84376597854111 184.1345879677579 H 0.0 **** 0.06
17435 H 164.5219768808333 178.3306468333207 184.6971990271726 H 0.0 **** 0.06
17436 C 198.27260453359102 54.983026497901164 28.494814041111823 C 0.0 **** -0.24
17437 H 197.56722503940912 55.773335737257185 28.237136398855057 H 0.0 **** 0.06
17438 H 199.18248516758857 55.42736947454321 28.89971434799429 H 0.0 **** 0.06
17439 H 198.5158238439575 54.40712625786901 27.601559891231517 H 0.0 **** 0.06
17440 H 197.82587024247613 54.32523751153005 29.240529006908957 H 0.0 **** 0.06
17441 C 160.08053232597717 93.70999311486833 84.56818100214178 C 0.0 **** -0.24
17442 H 160.22941971403822 94.35685478984715 85.43281514635865 H 0.0 **** 0.06
17443 H 159.019369071573 93.48704989910328 84.45951849221032 H 0.0 **** 0.06
17444 H 160.63502849638374 92.78219376104727 84.7091421293066 H 0.0 **** 0.06
17445 H 160.4393339592666 94.21481497915343 83.67151331303089 H 0.0 **** 0.06
17446 C 78.94971755883518 148.10580933928435 63.48200857820848 C 0.0 **** -0.24
17447 H 79.18703689205702 148.62542152692555 64.40995759395948 H 0.0 **** 0.06
17448 H 78.05833702098965 148.5485877743755 63.03620738542115 H 0.0 **** 0.06
17449 H 78.76678300288907 147.0520356711834 63.691098694250314 H 0.0 **** 0.06
17450 H 79.7869496292096 148.19804796679986 62.789669648694584 H 0.0 **** 0.06
17451 C 184.06929793609123 38.4850232963521 145.08361650316579 C 0.0 **** -0.24
17452 H 183.75120941470269 38.29867350192285 146.10935191137818 H 0.0 **** 0.06
17453 H 183.57866526098752 39.38359789411271 144.70948690889523 H 0.0 **** 0.06
17454 H 183.79755784820924 37.63401813995176 144.4586019084706 H 0.0 **** 0.06
17455 H 185.14988318036572 38.623475793301 145.0583953888572 H 0.0 **** 0.06
17456 C 46.25307479754264 133.9632910325425 50.32604730562376 C 0.0 **** -0.24
17457 H 47.31575399194472 133.82117603720909 50.52490142352224 H 0.0 **** 0.06
17458 H 45.94991333127439 133.32023507870917 49.49968246345993 H 0.0 **** 0.06
17459 H 46.06871411546797 135.00509727341694 50.06457920176038 H 0.0 **** 0.06
17460 H 45.67918437070216 133.70493701483355 51.21622687784995 H 0.0 **** 0.06
17461 C 166.8033963114601 187.35543313594047 117.61852599894507 C 0.0 **** -0.24
17462 H 166.44432318248673 188.1127244910775 118.31476443059273 H 0.0 **** 0.06
17463 H 166.15440269441166 186.4805379223453 117.66640449532042 H 0.0 **** 0.06
17464 H 167.8205932034734 187.0686859444778 117.88676699120072 H 0.0 **** 0.06
17465 H 166.79463434758446 187.75894681390497 116.60657214766212 H 0.0 **** 0.06
17466 C 97.2914809373614 38.225507687655366 4.225552455438475 C 0.0 **** -0.24
17467 H 97.05821741857562 39.266276558839635 4.448666674063645 H 0.0 **** 0.06
17468 H 97.67942445048644 37.7411319953662 5.121688440294008 H 0.0 **** 0.06
17469 H 98.04086534790605 38.181884374315146 3.4358235946557443 H 0.0 **** 0.06
17470 H 96.38678499567402 37.71269338066938 3.898397400112202 H 0.0 **** 0.06
17471 C 60.46060229091262 139.1414264650639 134.38610365322668 C 0.0 **** -0.24
17472 H 59.67483043052414 138.60723117872803 133.85236059447473 H 0.0 **** 0.06
17473 H 60.045044099227766 139.5934879434499 135.28714278061724 H 0.0 **** 0.06
17474 H 60.87003790381982 139.9216101205245 133.74383607601365 H 0.0 **** 0.06
17475 H 61.251370309583876 138.44414959420436 134.66144084909763 H 0.0 **** 0.06
17476 C 85.68999999143878 8.607225065436864 99.82926809346225 C 0.0 **** -0.24
17477 H 84.7371989008308 8.479654826566275 100.34340387856295 H 0.0 **** 0.06
17478 H 86.49479129249065 8.659190004096729 100.56288877184619 H 0.0 **** 0.06
17479 H 85.66802154201335 9.529948787326418 99.24801978265651 H 0.0 **** 0.06
17480 H 85.85923749823004 7.7623737495270575 99.16221518183602 H 0.0 **** 0.06
17481 C 85.29892912797177 3.300937768934432 5.609197860103102 C 0.0 **** -0.24
17482 H 85.83407355828504 3.7693132667897657 6.435224804866252 H 0.0 **** 0.06
17483 H 85.24000107455839 3.9986749907751857 4.773984754637709 H 0.0 **** 0.06
17484 H 84.29256743222152 3.0347539007888713 5.932708249074047 H 0.0 **** 0.06
17485 H 85.83030748119506 2.4020395077862133 5.296064260291871 H 0.0 **** 0.06
17486 C 143.27191712618944 152.69721027051327 177.87473752517286 C 0.0 **** -0.24
17487 H 144.33577875735517 152.46472463899386 177.90918342758962 H 0.0 **** 0.06
17488 H 142.70487956996732 151.7821519155712 177.70040644896508 H 0.0 **** 0.06
17489 H 143.08021588484127 153.40400064056718 177.06760638225998 H 0.0 **** 0.06
17490 H 142.96584018670526 153.13834909973014 178.82397677299247 H 0.0 **** 0.06
17491 C 49.14556711810968 34.78789382634568 169.15085229126927 C 0.0 **** -0.24
17492 H 49.98269997440556 34.16865139601822 169.47310541487212 H 0.0 **** 0.06
17493 H 48.273494369511724 34.15826420210871 168.9777300393154 H 0.0 **** 0.06
17494 H 49.41030944563792 35.30488821941691 168.2280305323812 H 0.0 **** 0.06
17495 H 48.916944162316184 35.52138461190373 169.92446104760091 H 0.0 **** 0.06
17496 C 56.95486906777609 14.656074593615514 167.61900397087936 C 0.0 **** -0.24
17497 H 56.6020015365373 13.813252740430812 167.02480660644125 H 0.0 **** 0.06
17498 H 56.32804283115058 14.764471808728672 168.5041116449035 H 0.0 **** 0.06
17499 H 56.90482756325861 15.566896736938332 167.02291208300446 H 0.0 **** 0.06
17500 H 57.986605139671894 14.478269910510704 167.92431509257264 H 0.0 **** 0.06
17501 C 79.55883603047485 78.80500512287398 174.43831207918961 C 0.0 **** -0.24
17502 H 78.93681959630302 77.93161202631384 174.63369563108193 H 0.0 **** 0.06
17503 H 79.02164964491621 79.4952242053563 173.78628820615063 H 0.0 **** 0.06
17504 H 80.48263587066495 78.4916658331594 173.95343890341405 H 0.0 **** 0.06
17505 H 79.79206568634035 79.3019659466539 175.38010215909756 H 0.0 **** 0.06
17506 C 53.816432182499625 37.53591172419715 73.42126390655305 C 0.0 **** -0.24
17507 H 53.10176767376959 36.80987154003907 73.03218551040648 H 0.0 **** 0.06
17508 H 54.321058932464666 38.02917419494389 72.59057102802194 H 0.0 **** 0.06
17509 H 54.55104758371317 37.024449263501765 74.04251991393274 H 0.0 **** 0.06
17510 H 53.2890252016976 38.27837022179182 74.01887323086846 H 0.0 **** 0.06
17511 C 113.9765016412689 88.29554943020679 160.37570045407327 C 0.0 **** -0.24
17512 H 112.9512943083148 88.65459548934663 160.46678029603638 H 0.0 **** 0.06
17513 H 114.62895223280304 89.12502888516786 160.10348044031377 H 0.0 **** 0.06
17514 H 114.02448865168708 87.5258931023526 159.60555367610144 H 0.0 **** 0.06
17515 H 114.2991706278458 87.87583365790124 161.32868161098327 H 0.0 **** 0.06
17516 C 125.10660705470684 151.57420853385588 114.0148652831906 C 0.0 **** -0.24
17517 H 124.71484591499012 152.3289774791583 114.69581587156597 H 0.0 **** 0.06
17518 H 125.3617259441065 152.04128353654096 113.0632682092351 H 0.0 **** 0.06
17519 H 124.35103375366006 150.80545315675158 113.85100298504958 H 0.0 **** 0.06
17520 H 125.99850072378575 151.12140854213737 114.44802753169353 H 0.0 **** 0.06
17521 C 84.29784539983103 9.740761631549951 122.09894426898717 C 0.0 **** -0.24
17522 H 85.28610306991575 9.990536350185081 121.71228284161964 H 0.0 **** 0.06
17523 H 83.90844799316969 8.871585955536531 121.56856422347525 H 0.0 **** 0.06
17524 H 83.62582306318046 10.586584019778016 121.95168204636735 H 0.0 **** 0.06
17525 H 84.3704770329183 9.516414788511184 123.16260389402774 H 0.0 **** 0.06
17526 C 125.07750492255573 43.71849186320854 193.0788250206844 C 0.0 **** -0.24
17527 H 124.95169620390209 42.75513697955556 192.58313333327823 H 0.0 **** 0.06
17528 H 124.61414012479523 43.682962833559486 194.0646776616329 H 0.0 **** 0.06
17529 H 124.60307154355027 44.49784210298161 192.4814023204345 H 0.0 **** 0.06
17530 H 126.13955215342929 43.93693341481412 193.18302490566649 H 0.0 **** 0.06
17531 C 194.57590677599367 121.34396890059381 100.3180282065062 C 0.0 **** -0.24
17532 H 193.72997534087216 120.67318381037177 100.1708173605995 H 0.0 **** 0.06
17533 H 195.48647560543054 120.86452247841763 99.95689492643169 H 0.0 **** 0.06
17534 H 194.67989172891998 121.56943595463275 101.37984854971032 H 0.0 **** 0.06
17535 H 194.40789418920588 122.26794133870072 99.76458228326561 H 0.0 **** 0.06
17536 C 11.878232494221628 63.94747633041959 174.0224256289898 C 0.0 **** -0.24
17537 H 11.978631423613443 65.01996672001161 174.189111265713 H 0.0 **** 0.06
17538 H 11.378852346074268 63.4922395815845 174.8785924852631 H 0.0 **** 0.06
17539 H 12.8659409377535 63.505426016098454 173.90035931746027 H 0.0 **** 0.06
17540 H 11.28778084206899 63.773315438748 173.12303221803032 H 0.0 **** 0.06
17541 C 18.891181280198396 134.15359305666902 171.15775764392265 C 0.0 **** -0.24
17542 H 19.015258050201737 133.14338306641355 171.54787866785784 H 0.0 **** 0.06
17543 H 17.92316064094902 134.23609013041653 170.66454578672653 H 0.0 **** 0.06
17544 H 19.684422401716347 134.36511382096165 170.4404444762124 H 0.0 **** 0.06
17545 H 18.944076849528443 134.86870456471445 171.978316148293 H 0.0 **** 0.06
17546 C 198.58776016853935 62.881850547730494 132.74496171430542 C 0.0 **** -0.24
17547 H 199.25100019420375 63.57859487736255 132.232345200615 H 0.0 **** 0.06
17548 H 198.78587378620188 62.91277627551949 133.8163352602695 H 0.0 **** 0.06
17549 H 198.76305941555913 61.87344340468496 132.371534522322 H 0.0 **** 0.06
17550 H 197.55090477056712 63.16343761817427 132.55757356778145 H 0.0 **** 0.06
17551 C 70.24527649058109 196.73833021407717 56.456270508616115 C 0.0 **** -0.24
17552 H 69.78710342308466 196.51004688169434 57.418419579944725 H 0.0 **** 0.06
17553 H 69.47156528203448 197.0243392314183 55.744193633038066 H 0.0 **** 0.06
17554 H 70.77225678114667 195.85878028540503 56.086574178808405 H 0.0 **** 0.06
17555 H 70.95150376831282 197.56048762410984 56.57626604682878 H 0.0 **** 0.06
17556 C 2.20730281534653 106.79662047334665 161.18086299854446 C 0.0 **** -0.24
17557 H 1.5677189016938016 105.93444346670867 160.9909421801305 H 0.0 **** 0.06
17558 H 2.9701072260476735 106.86156279907027 160.4038831763675 H 0.0 **** 0.06
17559 H 2.687613838166939 106.68524952764312 162.15307774874114 H 0.0 **** 0.06
17560 H 1.603796030332802 107.70381454918845 161.17546548733822 H 0.0 **** 0.06
17561 C 103.92788106088125 5.813259858732444 124.3908732493179 C 0.0 **** -0.24
17562 H 103.60953153829348 6.254450353648295 125.33547063148802 H 0.0 **** 0.06
17563 H 104.43042203565608 6.5699655480467385 123.78804262586792 H 0.0 **** 0.06
17564 H 103.0557471170643 5.440774305354502 123.85231163983568 H 0.0 **** 0.06
17565 H 104.61369439899653 4.9897946920948755 124.58684222548285 H 0.0 **** 0.06
17566 C 71.68047987688577 90.75285991338103 78.03613321908794 C 0.0 **** -0.24
17567 H 72.33762716003963 90.04313894194138 78.53833165163843 H 0.0 **** 0.06
17568 H 70.64733219062376 90.41894891579051 78.12823626271687 H 0.0 **** 0.06
17569 H 71.9501896619971 90.81235799631196 76.98162466248884 H 0.0 **** 0.06
17570 H 71.7876750046305 91.73534851326497 78.49476707826258 H 0.0 **** 0.06
17571 C 168.0567898805104 77.29095977686165 15.961933505347247 C 0.0 **** -0.24
17572 H 168.95992227496063 77.76466719908427 16.348302325325278 H 0.0 **** 0.06
17573 H 167.73459376448375 77.80654222263513 15.057535874173595 H 0.0 **** 0.06
17574 H 167.26918144909064 77.34644196146331 16.713049579605638 H 0.0 **** 0.06
17575 H 168.26601045596095 76.2463973122027 15.730415258039471 H 0.0 **** 0.06
17576 C 0.5289991974999424 58.48312106637013 174.10593127945577 C 0.0 **** -0.24
17577 H -0.17506226805343061 57.70716889663316 173.80697418320955 H 0.0 **** 0.06
17578 H 1.2285809598529411 58.076108325861526 174.83678331189185 H 0.0 **** 0.06
17579 H -0.016191965313282708 59.31702083588311 174.54966823248117 H 0.0 **** 0.06
17580 H 1.0781288374804703 58.832198045537496 173.23194468628768 H 0.0 **** 0.06
17581 C 55.11112114355885 134.49267941178456 191.99047724589965 C 0.0 **** -0.24
17582 H 55.843030866070364 133.826620547414 192.44717454742582 H 0.0 **** 0.06
17583 H 54.34422333898459 133.9019345007273 191.4897309184352 H 0.0 **** 0.06
17584 H 55.60850638764771 135.13384992224584 191.26260707766943 H 0.0 **** 0.06
17585 H 54.649846103159916 135.10922202780628 192.76144041257794 H 0.0 **** 0.06
17586 C 186.19498185492048 197.22501940983514 133.8998799033638 C 0.0 **** -0.24
17587 H 185.1597356690247 197.06459204069301 134.20071885266628 H 0.0 **** 0.06
17588 H 186.23887079968185 198.0246421615458 133.16148376016474 H 0.0 **** 0.06
17589 H 186.59322356328735 196.3065257396524 133.46709400622268 H 0.0 **** 0.06
17590 H 186.78697245832666 197.50139817040886 134.77201497007326 H 0.0 **** 0.06
17591 C 54.64002316961512 37.68890936607332 116.83251197850609 C 0.0 **** -0.24
17592 H 55.38132476709262 36.95594832998745 116.5159433143269 H 0.0 **** 0.06
17593 H 54.879457635460994 38.03627221758717 117.83842097335176 H 0.0 **** 0.06
17594 H 53.651608425375116 37.22908225472818 116.83241240920077 H 0.0 **** 0.06
17595 H 54.6474690340342 38.533516949512716 116.14440134369326 H 0.0 **** 0.06
17596 C 104.37417034817582 136.53740505064636 86.09933799595402 C 0.0 **** -0.24
17597 H 104.01019398781881 137.51606274914252 86.41146936475585 H 0.0 **** 0.06
17598 H 105.40723219462177 136.62605909454885 85.76146614345527 H 0.0 **** 0.06
17599 H 103.75653054889992 136.1620833333024 85.28412554294061 H 0.0 **** 0.06
17600 H 104.3253867950514 135.84675946971288 86.94134246982262 H 0.0 **** 0.06
17601 C 119.15880521225435 110.88766332701289 16.59374808659635 C 0.0 **** -0.24
17602 H 118.31382549028217 110.51430618772383 17.17197069964118 H 0.0 **** 0.06
17603 H 119.48378322877699 110.1211561820536 15.88960123648252 H 0.0 **** 0.06
17604 H 119.97901308130037 111.13402793040984 17.267378695236744 H 0.0 **** 0.06
17605 H 118.85766075816426 111.78092071142615 16.046288544931457 H 0.0 **** 0.06
17606 C 40.11923562614079 50.90559600736279 81.4406466097694 C 0.0 **** -0.24
17607 H 40.403252414099924 50.9396974899625 82.49191594322167 H 0.0 **** 0.06
17608 H 39.65284745829945 51.84984476393976 81.15964653048752 H 0.0 **** 0.06
17609 H 39.41377656287207 50.09028642095211 81.28195363724723 H 0.0 **** 0.06
17610 H 41.00719542277065 50.74152341727256 80.83002866849358 H 0.0 **** 0.06
17611 C 73.44352714456075 122.42069912511784 17.653975619923585 C 0.0 **** -0.24
17612 H 72.49314260275145 122.0827736614649 18.065785360538968 H 0.0 **** 0.06
17613 H 74.1527277256025 122.58451914904862 18.46512370173474 H 0.0 **** 0.06
17614 H 73.29163189943442 123.35208113529791 17.108884748064554 H 0.0 **** 0.06
17615 H 73.83567939764157 121.66201063753181 16.975724855135553 H 0.0 **** 0.06
17616 C 65.29259967879189 98.01959188807172 154.0515773339632 C 0.0 **** -0.24
17617 H 64.31227644935785 98.17426002215524 154.5021933728333 H 0.0 **** 0.06
17618 H 65.25732981022915 97.14865543287578 153.3967686448273 H 0.0 **** 0.06
17619 H 66.03193438829325 97.85628495987339 154.83512420430577 H 0.0 **** 0.06
17620 H 65.56738512339206 98.89993202709252 153.47072461860876 H 0.0 **** 0.06
17621 C 33.47954329476666 111.98785902445934 171.27838990716242 C 0.0 **** -0.24
17622 H 33.297033181211006 112.60866130372182 170.40173532754469 H 0.0 **** 0.06
17623 H 33.86435171241068 112.6064189112081 172.08867430922763 H 0.0 **** 0.06
17624 H 34.208548122634184 111.21673114633722 171.03124335415677 H 0.0 **** 0.06
17625 H 32.54633178134448 111.51896079462938 171.5905219388443 H 0.0 **** 0.06
17626 C 181.90215589565878 157.56479955106744 182.38392649072165 C 0.0 **** -0.24
17627 H 181.7231202724069 156.54082995452796 182.05584541001352 H 0.0 **** 0.06
17628 H 182.86268372014854 157.9063411535668 181.99717032654732 H 0.0 **** 0.06
17629 H 181.91403563618013 157.60040366656068 183.47303570907596 H 0.0 **** 0.06
17630 H 181.1090709133009 158.21101015085463 182.00777259537801 H 0.0 **** 0.06
17631 C 98.73890181653093 98.70024972679485 196.94307900359058 C 0.0 **** -0.24
17632 H 99.19115845091014 98.288882067983 197.84603597357628 H 0.0 **** 0.06
17633 H 98.32057119165944 99.6829398946891 197.16317722401544 H 0.0 **** 0.06
17634 H 97.94770508682663 98.03634257065085 196.59797227101197 H 0.0 **** 0.06
17635 H 99.49896991626824 98.79430411901976 196.1677791084524 H 0.0 **** 0.06
17636 C 114.99023980048938 142.1677272872838 150.30604659269684 C 0.0 **** -0.24
17637 H 113.92766195283295 142.40128429446713 150.35114727442974 H 0.0 **** 0.06
17638 H 115.17268572166816 141.20971807244172 150.7935161048361 H 0.0 **** 0.06
17639 H 115.5563949376658 142.94827877853245 150.81502049044258 H 0.0 **** 0.06
17640 H 115.30586235264883 142.11188153519754 149.2640257923188 H 0.0 **** 0.06
17641 C 135.53588165264375 48.09333745552894 12.239267738367744 C 0.0 **** -0.24
17642 H 136.3291543153033 48.40596930870686 11.560519271613735 H 0.0 **** 0.06
17643 H 135.6554124007178 48.602075520941014 13.195931037454692 H 0.0 **** 0.06
17644 H 135.59188591732737 47.0153704730061 12.390791298918437 H 0.0 **** 0.06
17645 H 134.5676263804921 48.3496516873322 11.809045203765102 H 0.0 **** 0.06
17646 C 149.5499759946413 72.78501693816156 31.795943183095304 C 0.0 **** -0.24
17647 H 149.51348168681434 71.88885923624612 31.177017332848322 H 0.0 **** 0.06
17648 H 150.30197684728483 73.46811066741492 31.402249983117542 H 0.0 **** 0.06
17649 H 149.80866557358868 72.5099844347415 32.81897423292406 H 0.0 **** 0.06
17650 H 148.57473536454322 73.27217775053589 31.786957236229227 H 0.0 **** 0.06
17651 C 36.332732870472256 194.873075564621 166.49170315004181 C 0.0 **** -0.24
17652 H 35.94299085164485 194.0306139534306 167.06105297659138 H 0.0 **** 0.06
17653 H 35.55210775242776 195.6242849553622 166.37350184220767 H 0.0 **** 0.06
17654 H 36.65722216273298 194.5289743349905 165.5093957965894 H 0.0 **** 0.06
17655 H 37.18018827536349 195.3092802740388 167.0215252839199 H 0.0 **** 0.06
17656 C 2.829678238062769 94.602364176489 5.330822158759375 C 0.0 **** -0.24
17657 H 2.7106390516212286 93.55177288720225 5.59502717189676 H 0.0 **** 0.06
17658 H 3.161755664483053 95.1613283386213 6.20598176811999 H 0.0 **** 0.06
17659 H 1.874686290567297 94.9999842842737 4.986385914453145 H 0.0 **** 0.06
17660 H 3.5699114495265576 94.6950758452372 4.537060866596917 H 0.0 **** 0.06
17661 C 98.61837952452962 132.01450939884046 145.1267460824314 C 0.0 **** -0.24
17662 H 99.10275445959701 131.14524216118969 145.5733892391563 H 0.0 **** 0.06
17663 H 99.30570457049112 132.49391553296232 144.4285163507799 H 0.0 **** 0.06
17664 H 98.34498561469229 132.72042622522605 145.910595476915 H 0.0 **** 0.06
17665 H 97.72262082579229 131.6957241995156 144.59423596866887 H 0.0 **** 0.06
17666 C 65.8161752912185 87.61861499185841 53.812949015156676 C 0.0 **** -0.24
17667 H 65.59936086059393 88.67656389434589 53.665665948962726 H 0.0 **** 0.06
17668 H 65.58445243811535 87.06951187437639 52.89979843139524 H 0.0 **** 0.06
17669 H 65.20754041978127 87.23452651815657 54.63207497483498 H 0.0 **** 0.06
17670 H 66.87102603072329 87.49360397788382 54.05499616063025 H 0.0 **** 0.06
17671 C 195.52758191030495 183.19469581629374 91.679608993084 C 0.0 **** -0.24
17672 H 194.62113400121245 183.60392623971904 91.2344457495742 H 0.0 **** 0.06
17673 H 195.53294462493682 183.40379338994956 92.74994359294135 H 0.0 **** 0.06
17674 H 196.40031624192247 183.65565305937486 91.21554119723908 H 0.0 **** 0.06
17675 H 195.55814293772298 182.11734759968562 91.5191081819928 H 0.0 **** 0.06
17676 C 147.40748509203615 52.08502779774638 56.66342676521555 C 0.0 **** -0.24
17677 H 146.53858845997627 51.441104575685884 56.52213189190404 H 0.0 **** 0.06
17678 H 147.6723477061036 52.109139899950804 57.721086971578956 H 0.0 **** 0.06
17679 H 147.17079420730528 53.09302316616325 56.325685144448414 H 0.0 **** 0.06
17680 H 148.24617819478146 51.69565331100851 56.08753351130758 H 0.0 **** 0.06
17681 C 168.2470351432656 155.25126467092127 61.05224297706563 C 0.0 **** -0.24
17682 H 167.46596789838 155.80975304744683 60.535340280678184 H 0.0 **** 0.06
17683 H 167.8047396178295 154.3951012223361 61.56137704050671 H 0.0 **** 0.06
17684 H 168.73295618928856 155.8982385376501 61.781898521341034 H 0.0 **** 0.06
17685 H 168.9829503100807 154.90341725042288 60.326811562562625 H 0.0 **** 0.06
17686 C 8.319347986888744 71.00632369381941 151.41963349788713 C 0.0 **** -0.24
17687 H 8.436108343872824 70.20636025710098 150.6886860332765 H 0.0 **** 0.06
17688 H 7.388672644075243 70.86231440188247 151.96976843007127 H 0.0 **** 0.06
17689 H 8.29321062411514 71.96770772468652 150.90594362909007 H 0.0 **** 0.06
17690 H 9.158721441900056 70.98850225090821 152.1153067668792 H 0.0 **** 0.06
17691 C 82.47485712579976 79.51353103537281 17.78743313205206 C 0.0 **** -0.24
17692 H 82.52363895497786 79.54558395146 18.876414147337215 H 0.0 **** 0.06
17693 H 83.15618521848512 80.25696109436956 17.373043857443463 H 0.0 **** 0.06
17694 H 81.45829076717695 79.7311110395039 17.46288048763566 H 0.0 **** 0.06
17695 H 82.76345424064186 78.52202076718669 17.440711711922802 H 0.0 **** 0.06
17696 C 66.66179104940687 78.81787637236707 152.9382423540135 C 0.0 **** -0.24
17697 H 65.8043738520062 78.51005516755097 152.3396101283384 H 0.0 **** 0.06
17698 H 67.37137113102455 77.99379170979152 153.00654492601572 H 0.0 **** 0.06
17699 H 66.32583496459677 79.09388566819698 153.93800236026078 H 0.0 **** 0.06
17700 H 67.14334088177404 79.6755116499715 152.4678402016403 H 0.0 **** 0.06
17701 C 38.624124036110345 62.443638080645655 1.8852358268275538 C 0.0 **** -0.24
17702 H 39.29866280735888 63.29869353113068 1.936121170375138 H 0.0 **** 0.06
17703 H 38.92034179129445 61.70308486126021 2.628105028841347 H 0.0 **** 0.06
17704 H 38.67335790810034 62.000951330719886 0.890411144301126 H 0.0 **** 0.06
17705 H 37.604743216117754 62.77260940741377 2.086209170109356 H 0.0 **** 0.06
17706 C 185.23111268888943 55.041159242226115 191.18556124158724 C 0.0 **** -0.24
17707 H 185.2163778489741 55.38272554205946 190.15035013304285 H 0.0 **** 0.06
17708 H 184.51643119696473 54.22782255790548 191.30981693455198 H 0.0 **** 0.06
17709 H 184.9605297430553 55.86682985849154 191.84411465385742 H 0.0 **** 0.06
17710 H 186.2315772447593 54.68880927642459 191.43734659552143 H 0.0 **** 0.06
17711 C 152.34829543285798 68.78039068730016 89.35272328228183 C 0.0 **** -0.24
17712 H 152.65006051140494 69.4571683529793 88.5541392332492 H 0.0 **** 0.06
17713 H 151.77873223788703 67.95230598980953 88.93012158283284 H 0.0 **** 0.06
17714 H 151.7300294139317 69.3179111114116 90.0713543386907 H 0.0 **** 0.06
17715 H 153.2356095116355 68.39239202035373 89.85415968746605 H 0.0 **** 0.06
17716 C 13.666593112886446 195.95034191652357 162.74203395213908 C 0.0 **** -0.24
17717 H 14.749200332448254 195.98926441305306 162.8626794240427 H 0.0 **** 0.06
17718 H 13.217268398678279 195.51255776928528 163.63413767477743 H 0.0 **** 0.06
17719 H 13.419555841216585 195.33934581990943 161.8738311883562 H 0.0 **** 0.06
17720 H 13.280221922982683 196.9595800993128 162.59826230937404 H 0.0 **** 0.06
17721 C 102.62698168738328 76.56270977211778 121.71068258011772 C 0.0 **** -0.24
17722 H 101.77820870923426 76.45504856982075 122.38625284729406 H 0.0 **** 0.06
17723 H 102.54240785807497 77.50404864221171 121.16867699116469 H 0.0 **** 0.06
17724 H 102.63462742432193 75.73386163715608 121.00282454746184 H 0.0 **** 0.06
17725 H 103.55159207988328 76.556424650206 122.2875628048732 H 0.0 **** 0.06
17726 C 56.42009181974561 176.64070040765145 78.10827581968755 C 0.0 **** -0.24
17727 H 56.005421943630324 175.6999742610487 78.47129497371427 H 0.0 **** 0.06
17728 H 57.18871505459606 176.43483058650807 77.36393006485359 H 0.0 **** 0.06
17729 H 56.85775639072153 177.18895485765543 78.94271962892614 H 0.0 **** 0.06
17730 H 55.626837494407766 177.23646333988387 77.65732041808306 H 0.0 **** 0.06
17731 C 146.5374272622928 83.3253908181826 109.12580617861934 C 0.0 **** -0.24
17732 H 146.52837678216568 84.39850542758586 109.31628663093957 H 0.0 **** 0.06
17733 H 147.5673305429447 82.96947785297198 109.10252803390341 H 0.0 **** 0.06
17734 H 146.06115180306963 83.12279181508094 108.16600097181 H 0.0 **** 0.06
17735 H 145.9922177601186 82.81100526815428 109.91766525948742 H 0.0 **** 0.06
17736 C 123.17976106490642 35.80336541811124 131.22694868261453 C 0.0 **** -0.24
17737 H 122.23299026553298 35.56190745750746 130.74561018273306 H 0.0 **** 0.06
17738 H 123.91073658759979 36.08821061501604 130.46929921784954 H 0.0 **** 0.06
17739 H 123.54317182586061 34.93153505002505 131.7720084363645 H 0.0 **** 0.06
17740 H 123.03342006908991 36.63064381998851 131.92101527075704 H 0.0 **** 0.06
17741 C 32.297623150794266 189.99124394271044 125.23402630432977 C 0.0 **** -0.24
17742 H 32.859246501816756 189.38803120623555 125.94743732995968 H 0.0 **** 0.06
17743 H 32.15045004627444 190.99193698761232 125.64026907539011 H 0.0 **** 0.06
17744 H 31.327968813206667 189.52661942590458 125.04949107525539 H 0.0 **** 0.06
17745 H 32.85219289420098 190.0561588281167 124.29728665835623 H 0.0 **** 0.06
17746 C 68.1119494760496 28.17457063977315 114.16375801714617 C 0.0 **** -0.24
17747 H 68.88496013153066 27.786450944407306 113.50090486664911 H 0.0 **** 0.06
17748 H 67.72587808547502 29.11128084521104 113.76279226257913 H 0.0 **** 0.06
17749 H 68.5356230194208 28.349665169101343 115.15301497647334 H 0.0 **** 0.06
17750 H 67.3017059782328 27.449518495059607 114.24005049486203 H 0.0 **** 0.06
17751 C 178.07903127123217 19.300729320669916 34.66670510587612 C 0.0 **** -0.24
17752 H 177.2243283741801 19.97018555655768 34.57296624097749 H 0.0 **** 0.06
17753 H 177.90984563839248 18.61030240335583 35.49348475764931 H 0.0 **** 0.06
17754 H 178.9782504134994 19.886681024680428 34.85981968691695 H 0.0 **** 0.06
17755 H 178.20329679175444 18.737727174865967 33.74193576384535 H 0.0 **** 0.06
17756 C 52.519416795203256 163.14604560551618 111.16372535282508 C 0.0 **** -0.24
17757 H 51.955962549670986 162.3493261412973 111.65093488021313 H 0.0 **** 0.06
17758 H 52.88373018204712 163.84605813167906 111.91574257694933 H 0.0 **** 0.06
17759 H 51.87124474448309 163.6711720190276 110.46156871626442 H 0.0 **** 0.06
17760 H 53.365001493548576 162.7159004265203 110.62646718598472 H 0.0 **** 0.06
17761 C 69.6200439056907 150.3840979552025 192.2386431969947 C 0.0 **** -0.24
17762 H 70.62419832912389 150.76620369162055 192.42384523222802 H 0.0 **** 0.06
17763 H 69.1401986007728 150.15090495830142 193.1886685502962 H 0.0 **** 0.06
17764 H 69.68175939847546 149.48216747000018 191.6304661997935 H 0.0 **** 0.06
17765 H 69.03645797886253 151.13859383723434 191.71066107311464 H 0.0 **** 0.06
17766 C 9.421650011813782 25.262284711618562 70.94091835240765 C 0.0 **** -0.24
17767 H 9.24132511290808 24.767967199824298 71.89549407505051 H 0.0 **** 0.06
17768 H 10.293148768318396 25.912366889223293 71.02903645822369 H 0.0 **** 0.06
17769 H 8.5499314848472 25.856854650401075 70.66989242531237 H 0.0 **** 0.06
17770 H 9.603716260974835 24.511281057919234 70.17212053919765 H 0.0 **** 0.06
17771 C 83.45625725377644 81.11712757868736 72.6068608658909 C 0.0 **** -0.24
17772 H 83.47856952612028 82.1728077375258 72.33439385737222 H 0.0 **** 0.06
17773 H 84.44779421838518 80.68509829379713 72.46751650422021 H 0.0 **** 0.06
17774 H 82.73955677877399 80.59447212881486 71.97547561471106 H 0.0 **** 0.06
17775 H 83.1603965187337 81.01892716032955 73.65164782971476 H 0.0 **** 0.06
17776 C 102.63157623763925 132.61389260977396 172.8149792745904 C 0.0 **** -0.24
17777 H 103.6949089846008 132.58744685597054 173.05156278494047 H 0.0 **** 0.06
17778 H 102.35005429778832 133.62635144079644 172.52217859577206 H 0.0 **** 0.06
17779 H 102.05633753969468 132.3153823529091 173.6906245910927 H 0.0 **** 0.06
17780 H 102.42537707264526 131.92762235245368 171.9934674205521 H 0.0 **** 0.06
17781 C 169.4698662908927 66.7204645407187 78.9906270157249 C 0.0 **** -0.24
17782 H 169.65948948737332 65.66126052536839 79.1621162624879 H 0.0 **** 0.06
17783 H 170.08259108527568 67.31412011995167 79.66875683636266 H 0.0 **** 0.06
17784 H 168.41622569656508 66.93414603157419 79.1703668312123 H 0.0 **** 0.06
17785 H 169.72040072765415 66.97189330231981 77.95947000469963 H 0.0 **** 0.06
17786 C 58.054229717550186 154.87262474057576 81.6860085657317 C 0.0 **** -0.24
17787 H 58.536055272964006 153.97677781289008 81.29365909119002 H 0.0 **** 0.06
17788 H 57.5562071554657 155.40237701238118 80.87342333388165 H 0.0 **** 0.06
17789 H 58.805021144975115 155.5206332452586 82.13677664849081 H 0.0 **** 0.06
17790 H 57.319823927191294 154.58932783384904 82.43994800532892 H 0.0 **** 0.06
17791 C 44.47231378996571 23.963158545004518 10.968116298037515 C 0.0 **** -0.24
17792 H 43.81025019293352 24.542785551740522 10.325036207084764 H 0.0 **** 0.06
17793 H 45.01940855971287 24.637287864749155 11.627336792664245 H 0.0 **** 0.06
17794 H 45.177654458961854 23.4036192422885 10.353323648764658 H 0.0 **** 0.06
17795 H 43.881391011016376 23.269707250710212 11.566436657880665 H 0.0 **** 0.06
17796 C 137.21498497700006 84.87787473153912 101.17147267910755 C 0.0 **** -0.24
17797 H 138.00819426859542 85.19642499020108 100.49540727805649 H 0.0 **** 0.06
17798 H 136.29544292011377 85.41345593258683 100.93106071925243 H 0.0 **** 0.06
17799 H 137.50443686434298 85.09595176099793 102.1996675563573 H 0.0 **** 0.06
17800 H 137.05055976449967 83.80619794306705 101.05986223911049 H 0.0 **** 0.06
17801 C 192.11862858248523 154.84604656107336 143.31999573565304 C 0.0 **** -0.24
17802 H 193.13657153373498 155.11859935476056 143.59924081251978 H 0.0 **** 0.06
17803 H 191.9290139856315 153.81183635913436 143.60871058192947 H 0.0 **** 0.06
17804 H 191.99692825299027 154.95166142875024 142.24282296762408 H 0.0 **** 0.06
17805 H 191.41420987135288 155.5014026822038 143.83214933956532 H 0.0 **** 0.06
17806 C 153.01656657371944 198.5967776296352 32.45472694751669 C 0.0 **** -0.24
17807 H 152.09210491326826 198.4217194323167 31.904723364575062 H 0.0 **** 0.06
17808 H 153.427698268229 199.56613611491957 32.17352678449106 H 0.0 **** 0.06
17809 H 153.7360816736396 197.81362669794123 32.216245675396266 H 0.0 **** 0.06
17810 H 152.8101630034792 198.5863538296327 33.5250645568363 H 0.0 **** 0.06
17811 C 42.321813477058384 142.3152690610979 182.59089825269498 C 0.0 **** -0.24
17812 H 41.61176897215849 141.82371826973113 183.25631640163832 H 0.0 **** 0.06
17813 H 41.86113576225195 142.46327856254987 181.61414244153514 H 0.0 **** 0.06
17814 H 43.21035542244486 141.69224827128343 182.48468145895578 H 0.0 **** 0.06
17815 H 42.60332182148528 143.28019765978775 183.01066187655928 H 0.0 **** 0.06
17816 C 65.38433712240311 163.57296864980464 135.72339030916157 C 0.0 **** -0.24
17817 H 66.1926536692736 164.30434300741544 135.72733944685194 H 0.0 **** 0.06
17818 H 64.57256467188216 163.93179575181932 135.08947918479157 H 0.0 **** 0.06
17819 H 65.01736738585032 163.43168433942122 136.73952938340574 H 0.0 **** 0.06
17820 H 65.75633939973386 162.6237765721424 135.33535883236254 H 0.0 **** 0.06
17821 C 87.73382564270909 15.563148869859418 6.428580395050631 C 0.0 **** -0.24
17822 H 87.00405710840107 16.37246874824001 6.426607704832122 H 0.0 **** 0.06
17823 H 87.23935115673726 14.62963920229592 6.69853294853354 H 0.0 **** 0.06
17824 H 88.51748563262711 15.782370613329704 7.153818653001309 H 0.0 **** 0.06
17825 H 88.17301685017247 15.467882751269002 5.435451936154948 H 0.0 **** 0.06
17826 C 70.47338527164493 67.08090395529746 89.97621303479895 C 0.0 **** -0.24
17827 H 69.54449133536025 67.464641747982 90.39993473255274 H 0.0 **** 0.06
17828 H 70.9523958802385 67.86214487520454 89.38520443470765 H 0.0 **** 0.06
17829 H 70.25555004530588 66.22429778603362 89.33867138261016 H 0.0 **** 0.06
17830 H 71.14003150545318 66.77499966147366 90.78236751099675 H 0.0 **** 0.06
17831 C 97.55327988533452 3.1076950290814622 42.11670988732617 C 0.0 **** -0.24
17832 H 97.85010904015104 2.059133449777015 42.133613871289214 H 0.0 **** 0.06
17833 H 97.10554976058643 3.3730005991001946 43.07488909327651 H 0.0 **** 0.06
17834 H 96.82766273606529 3.266803756187997 41.319505501885175 H 0.0 **** 0.06
17835 H 98.4298659384171 3.7307389416974175 41.939713128106746 H 0.0 **** 0.06
17836 C 56.48899237842909 178.303153419767 15.588261657138233 C 0.0 **** -0.24
17837 H 57.55482206462949 178.40097812094257 15.383117609353306 H 0.0 **** 0.06
17838 H 56.32149036529097 178.34035045078687 16.66525477034145 H 0.0 **** 0.06
17839 H 56.12856429295755 177.35265085217517 15.196532007087555 H 0.0 **** 0.06
17840 H 55.95091793452053 179.12158221511493 15.10927324732306 H 0.0 **** 0.06
17841 C 50.41180923388498 191.16527964697906 63.550486302128604 C 0.0 **** -0.24
17842 H 51.108325667056974 192.0010771960434 63.620927835168544 H 0.0 **** 0.06
17843 H 50.19609389655555 190.96078378229691 62.50097591432092 H 0.0 **** 0.06
17844 H 49.486876352743636 191.41939663808586 64.06911567180941 H 0.0 **** 0.06
17845 H 50.855508015382256 190.28238092509338 64.00935654023189 H 0.0 **** 0.06
17846 C 115.7468482271355 165.43764350331924 1.2906097738900826 C 0.0 **** -0.24
17847 H 116.55967305439512 165.75544120099428 1.943533278922132 H 0.0 **** 0.06
17848 H 115.98954078450828 165.68996007746392 0.25814313470166894 H 0.0 **** 0.06
17849 H 114.82753105774816 165.94427337167423 1.5824363947651818 H 0.0 **** 0.06
17850 H 115.61070996141694 164.35967251669712 1.3790270391130548 H 0.0 **** 0.06
17851 C 155.76526096360394 102.80411462162624 30.07480554204008 C 0.0 **** -0.24
17852 H 155.1638606022833 102.72783698165628 29.168135237733622 H 0.0 **** 0.06
17853 H 155.71652753581756 103.82486437232393 30.45692951383741 H 0.0 **** 0.06
17854 H 156.79966252439579 102.55050971798559 29.84612975926649 H 0.0 **** 0.06
17855 H 155.37814126782112 102.11561924441511 30.82515686865959 H 0.0 **** 0.06
17856 C 6.97869901205371 7.154107489134503 165.3302855069015 C 0.0 **** -0.24
17857 H 7.785774893171748 7.13663189184458 166.0626145349808 H 0.0 **** 0.06
17858 H 7.349882560124001 7.56559063004201 164.39123912995817 H 0.0 **** 0.06
17859 H 6.163795706361867 7.774759391373657 165.70240308682787 H 0.0 **** 0.06
17860 H 6.61534288855708 6.139448043277945 165.1648852758393 H 0.0 **** 0.06
17861 C 174.0009403050359 150.04553271424368 197.56653799296407 C 0.0 **** -0.24
17862 H 175.02085601134627 149.72099165957084 197.35620308194112 H 0.0 **** 0.06
17863 H 173.95600884424226 150.47465478617605 198.56766291040543 H 0.0 **** 0.06
17864 H 173.32839225145136 149.1891514345595 197.50702390548534 H 0.0 **** 0.06
17865 H 173.70094957600418 150.79540367328 196.8347164406255 H 0.0 **** 0.06
17866 C 151.85857670665223 34.948696830535155 39.8655693213955 C 0.0 **** -0.24
17867 H 152.6860204341358 34.33364219054741 39.51122011649272 H 0.0 **** 0.06
17868 H 151.81064204405283 34.900348201190795 40.95352537033298 H 0.0 **** 0.06
17869 H 150.92458551480502 34.5784494470786 39.44364871676899 H 0.0 **** 0.06
17870 H 152.0143952588411 35.980865952098 39.55402135457996 H 0.0 **** 0.06
17871 C 27.861376264561727 166.88881251593534 193.37038199361223 C 0.0 **** -0.24
17872 H 27.106150796516886 167.61550279681657 193.66906309570913 H 0.0 **** 0.06
17873 H 27.826923322501614 166.03265940524463 194.04511124093483 H 0.0 **** 0.06
17874 H 28.84751312737953 167.3500893359612 193.41817794524397 H 0.0 **** 0.06
17875 H 27.663897918338762 166.5572553106198 192.3519853319139 H 0.0 **** 0.06
17876 C 23.286835370402514 155.48803178659966 127.26427929547629 C 0.0 **** -0.24
17877 H 22.69234232828697 155.070616255162 128.0766363401758 H 0.0 **** 0.06
17878 H 22.62481230786574 155.84822579907214 126.47747983054285 H 0.0 **** 0.06
17879 H 23.94386067015327 154.71631530461076 126.86157948518456 H 0.0 **** 0.06
17880 H 23.88759180894823 156.31501341532407 127.64217711112485 H 0.0 **** 0.06
17881 C 120.01936810318978 174.28697119514453 138.55903480045998 C 0.0 **** -0.24
17882 H 119.73892319261643 174.1858411910327 139.60754329344394 H 0.0 **** 0.06
17883 H 119.60282196798732 175.21353725026646 138.1608232998244 H 0.0 **** 0.06
17884 H 119.62807273977012 173.44110841910347 137.99512190612293 H 0.0 **** 0.06
17885 H 121.1054240532468 174.31038828843506 138.47490528897873 H 0.0 **** 0.06
17886 C 123.0216934616337 59.70452460731235 81.80400500523865 C 0.0 **** -0.24
17887 H 123.30002265168099 59.34017771712513 82.79298118895895 H 0.0 **** 0.06
17888 H 123.8853687557866 59.65310255299107 81.14124680272448 H 0.0 **** 0.06
17889 H 122.68295468659355 60.73813223740973 81.88101806553561 H 0.0 **** 0.06
17890 H 122.21770116577264 59.08751713511367 81.40271851102193 H 0.0 **** 0.06
17891 C 27.702543382379474 37.232016021118994 191.28442301447188 C 0.0 **** -0.24
17892 H 27.408461070163867 37.937195650120984 192.06088932777806 H 0.0 **** 0.06
17893 H 27.24883997976731 36.26083710937431 191.484923514913 H 0.0 **** 0.06
17894 H 28.7879488415483 37.1322793546187 191.27672437164398 H 0.0 **** 0.06
17895 H 27.36423940509161 37.59707330890798 190.31411981353423 H 0.0 **** 0.06
17896 C 33.41417040017443 131.09492667184185 68.82586179532734 C 0.0 **** -0.24
17897 H 32.59163392175974 131.2108427122046 68.12023094877259 H 0.0 **** 0.06
17898 H 33.60226906165114 132.04633231775838 69.32427215987673 H 0.0 **** 0.06
17899 H 34.31072252628185 130.78238754643334 68.2904308809052 H 0.0 **** 0.06
17900 H 33.15281372750506 130.34129939813013 69.5682109637828 H 0.0 **** 0.06
17901 C 181.4077791297924 141.60325028545975 12.812337003479819 C 0.0 **** -0.24
17902 H 181.03413203155264 142.6276708382076 12.82040430202425 H 0.0 **** 0.06
17903 H 182.19502934304592 141.49912360747075 13.560509756238176 H 0.0 **** 0.06
17904 H 181.81025738081223 141.37098311309538 11.825827032502524 H 0.0 **** 0.06
17905 H 180.59379429490082 140.91735237468825 13.044046729106405 H 0.0 **** 0.06
17906 C 183.19749221572494 56.19475482962844 194.62515007930278 C 0.0 **** -0.24
17907 H 183.04130961450306 55.6026580304773 195.5285282514227 H 0.0 **** 0.06
17908 H 184.25201164144704 56.455943786535954 194.5414555563783 H 0.0 **** 0.06
17909 H 182.6006411776067 57.10471446993864 194.68045791471513 H 0.0 **** 0.06
17910 H 182.89489737509382 55.61380501083477 193.75430202220855 H 0.0 **** 0.06
17911 C 145.6172299081692 126.75721056723174 106.36126724967414 C 0.0 **** -0.24
17912 H 146.1966883036253 126.79525474054248 107.28322563931061 H 0.0 **** 0.06
17913 H 144.67481288884395 126.24051867438328 106.54517034918709 H 0.0 **** 0.06
17914 H 146.18175515544593 126.22160033716818 105.59842087196 H 0.0 **** 0.06
17915 H 145.41437397807883 127.7716320285169 106.01769446858688 H 0.0 **** 0.06
17916 C 184.98526051404724 35.31954026356948 7.105113882288492 C 0.0 **** -0.24
17917 H 185.57787989865557 34.828211158598606 6.334267185516353 H 0.0 **** 0.06
17918 H 183.952124439538 35.40878518800838 6.767224983921892 H 0.0 **** 0.06
17919 H 185.3914935973982 36.31303627132286 7.297644578726818 H 0.0 **** 0.06
17920 H 185.0183956727476 34.72932218395442 8.020812718700853 H 0.0 **** 0.06
17921 C 24.03268514383734 98.34689365595113 109.24329323817926 C 0.0 **** -0.24
17922 H 24.650401048286597 98.15804315695232 108.36577046636137 H 0.0 **** 0.06
17923 H 24.23325162829454 97.58838212201692 109.9999470694047 H 0.0 **** 0.06
17924 H 22.98059507270426 98.31102778600481 108.96218154417238 H 0.0 **** 0.06
17925 H 24.26680672428745 99.33310432165837 109.64627627488613 H 0.0 **** 0.06
17926 C 75.31517242982795 129.64629519542677 95.01579331668768 C 0.0 **** -0.24
17927 H 76.22178744968107 130.08880705268672 95.42671680394301 H 0.0 **** 0.06
17928 H 74.7364416028642 129.1922921998049 95.82034511590018 H 0.0 **** 0.06
17929 H 75.58236133202126 128.8833120002586 94.28500784509095 H 0.0 **** 0.06
17930 H 74.71973837339465 130.42029544668532 94.53238607584456 H 0.0 **** 0.06
17931 C 152.8772013610772 48.59686845847125 119.41758251252091 C 0.0 **** -0.24
17932 H 152.18549155821245 49.40511916993941 119.65574427675475 H 0.0 **** 0.06
17933 H 153.41708487288295 48.83998782175627 118.50252707867773 H 0.0 **** 0.06
17934 H 152.31952876140778 47.67182771488419 119.2758413814262 H 0.0 **** 0.06
17935 H 153.58594956273316 48.47236727685629 120.23652459420808 H 0.0 **** 0.06
17936 C 117.34216722950265 43.98583953804541 146.1723783503665 C 0.0 **** -0.24
17937 H 116.68637286042241 44.767003086639704 145.78999516098236 H 0.0 **** 0.06
17938 H 116.99923932638237 43.01491312438577 145.81363463384068 H 0.0 **** 0.06
17939 H 117.32457894493004 43.998125325533465 147.2625702660185 H 0.0 **** 0.06
17940 H 118.36000572100207 44.16278908477784 145.8239355877865 H 0.0 **** 0.06
17941 C 107.22372699925995 127.9649478153433 104.67624372735304 C 0.0 **** -0.24
17942 H 106.98833888491981 128.84403974022393 105.27661820850801 H 0.0 **** 0.06
17943 H 106.50389684280998 127.17503023156326 104.89153294465461 H 0.0 **** 0.06
17944 H 108.22836466484694 127.61863666248036 104.918265259755 H 0.0 **** 0.06
17945 H 107.1735300513443 128.22432944385383 103.61796155544675 H 0.0 **** 0.06
17946 C 179.5181083374526 81.79071525775666 64.13794221268071 C 0.0 **** -0.24
17947 H 180.07717683805217 80.93370465050947 63.76393033150626 H 0.0 **** 0.06
17948 H 178.45274821358723 81.55838399672922 64.1355562445864 H 0.0 **** 0.06
17949 H 179.70461495981675 82.65334284683973 63.49733029390346 H 0.0 **** 0.06
17950 H 179.838584868641 82.01677095979346 65.15465519189551 H 0.0 **** 0.06
17951 C 184.09945724523237 165.79152404058732 10.284376889175341 C 0.0 **** -0.24
17952 H 183.4150127503617 164.99131780845423 10.002360211113661 H 0.0 **** 0.06
17953 H 183.5403548052248 166.71873657968476 10.412326347758224 H 0.0 **** 0.06
17954 H 184.8462479543681 165.92234378754955 9.500600432017038 H 0.0 **** 0.06
17955 H 184.59568084127932 165.53216784679756 11.219695655485872 H 0.0 **** 0.06
17956 C 31.309903234807294 187.2993223336121 103.16052968641642 C 0.0 **** -0.24
17957 H 30.287043727490044 187.38186272163736 103.5276062294291 H 0.0 **** 0.06
17958 H 31.527809724538315 188.14028889708402 102.50127881648316 H 0.0 **** 0.06
17959 H 31.423707812755325 186.36584859897744 102.60955148105322 H 0.0 **** 0.06
17960 H 32.000640410151476 187.31040430032203 104.0044485544706 H 0.0 **** 0.06
17961 C 31.612619075072388 86.07592126765954 28.357063453657872 C 0.0 **** -0.24
17962 H 32.43122536505233 86.48171676665464 28.95198483555626 H 0.0 **** 0.06
17963 H 31.983625740146792 85.26003526981773 27.736567861191986 H 0.0 **** 0.06
17964 H 31.20316360634851 86.86047279668253 27.720816019670394 H 0.0 **** 0.06
17965 H 30.83238675891924 85.70274082077344 29.02071665902767 H 0.0 **** 0.06
17966 C 19.685616900674802 107.87351884444399 107.45308500480255 C 0.0 **** -0.24
17967 H 20.41744348983883 108.52527560786552 107.93152274587436 H 0.0 **** 0.06
17968 H 19.68497432564891 108.05720280177229 106.37867657544825 H 0.0 **** 0.06
17969 H 18.695235861325955 108.08232492945649 107.85865265168519 H 0.0 **** 0.06
17970 H 19.945715992288 106.83336201602759 107.64559964206398 H 0.0 **** 0.06
17971 C 103.96628838300069 56.029793138423884 127.57491197454061 C 0.0 **** -0.24
17972 H 103.39834482211876 55.18330511023311 127.18796388000575 H 0.0 **** 0.06
17973 H 104.57562897896491 56.4542487353379 126.77686675544712 H 0.0 **** 0.06
17974 H 104.61130146014088 55.69307491792421 128.38630623487728 H 0.0 **** 0.06
17975 H 103.27782579103479 56.787676942842324 127.94870079254133 H 0.0 **** 0.06
17976 C 191.1435488030547 91.05171551824083 81.19790110370613 C 0.0 **** -0.24
17977 H 190.36555733966156 90.51163418478768 80.65724488791741 H 0.0 **** 0.06
17978 H 190.92915928204178 92.12009675196526 81.16980560669757 H 0.0 **** 0.06
17979 H 192.10968799802387 90.86201262092939 80.72947868238214 H 0.0 **** 0.06
17980 H 191.1685053156279 90.71224712472994 82.23381475047799 H 0.0 **** 0.06
17981 C 21.38484352004957 130.4174750502529 41.79021377222659 C 0.0 **** -0.24
17982 H 21.93524313782592 131.29343586802753 42.13329479116527 H 0.0 **** 0.06
17983 H 21.41034575324585 129.64808616210195 42.56114115666344 H 0.0 **** 0.06
17984 H 21.842997999144018 130.03439593732674 40.87831161112547 H 0.0 **** 0.06
17985 H 20.34980383607666 130.69548832706292 41.587233010707195 H 0.0 **** 0.06
17986 C 41.43347842766127 74.5889412344275 192.2110705247037 C 0.0 **** -0.24
17987 H 42.33654198806647 74.00044447707111 192.04905060372445 H 0.0 **** 0.06
17988 H 40.567878480304444 74.03289661201426 191.85135704741157 H 0.0 **** 0.06
17989 H 41.511269883540535 75.5318936078684 191.66946919284544 H 0.0 **** 0.06
17990 H 41.318433178023554 74.79029061389807 193.27683397559446 H 0.0 **** 0.06
17991 C 67.53383402764575 136.40857065816644 138.96972690189787 C 0.0 **** -0.24
17992 H 67.40144729605268 135.35654519447766 138.7179832827223 H 0.0 **** 0.06
17993 H 67.76358061589971 136.50227540413627 140.03108999108912 H 0.0 **** 0.06
17994 H 66.61664487627178 136.95353133208505 138.74666950117143 H 0.0 **** 0.06
17995 H 68.35371005623307 136.82287890445505 138.38171611150474 H 0.0 **** 0.06
17996 C 59.87954108358679 188.62245452883602 37.83208159906917 C 0.0 **** -0.24
17997 H 59.86061767983264 189.5794952836209 38.353109019934266 H 0.0 **** 0.06
17998 H 58.85815290743568 188.2884969525893 37.64704583868513 H 0.0 **** 0.06
17999 H 60.39682766304463 187.8853186352138 38.44650487283593 H 0.0 **** 0.06
18000 H 60.40254580095598 188.73582355127286 36.88290448394969 H 0.0 **** 0.06
18001 C 103.5136541280161 185.59299596569315 145.92366143729305 C 0.0 **** -0.24
18002 H 103.21118608761006 185.57125358656725 144.87688112256075 H 0.0 **** 0.06
18003 H 104.22755521973002 186.40205217004274 146.07913483758045 H 0.0 **** 0.06
18004 H 103.97906324936937 184.642670065437 146.18702760193742 H 0.0 **** 0.06
18005 H 102.6376580913724 185.7545265311478 146.55130344295446 H 0.0 **** 0.06
18006 C 37.40579536348315 17.52216717023782 191.4028687338053 C 0.0 **** -0.24
18007 H 37.290803469696016 17.67935020712227 192.47478944662407 H 0.0 **** 0.06
18008 H 38.46478799849359 17.537938024298228 191.14523224329773 H 0.0 **** 0.06
18009 H 36.88832337527532 18.31500229155708 190.86237553060462 H 0.0 **** 0.06
18010 H 36.97923522706935 16.558079414864096 191.1287539788067 H 0.0 **** 0.06
18011 C 40.65803342848031 175.17371686272375 142.39444422324738 C 0.0 **** -0.24
18012 H 40.112559767323305 174.22950149675563 142.4067134721503 H 0.0 **** 0.06
18013 H 41.695998765285864 174.9897557011962 142.11416941350492 H 0.0 **** 0.06
18014 H 40.62393082891211 175.62439681082304 143.38662630953775 H 0.0 **** 0.06
18015 H 40.20045169108681 175.84876166083467 141.67209449525112 H 0.0 **** 0.06
18016 C 130.3813012445349 42.9330285109757 124.3945983239878 C 0.0 **** -0.24
18017 H 129.76470837269474 43.052185786556095 125.28499679478 H 0.0 **** 0.06
18018 H 130.4166877847079 43.87621069306505 123.84866805058925 H 0.0 **** 0.06
18019 H 129.95304960086463 42.15936163567807 123.75610728165731 H 0.0 **** 0.06
18020 H 131.3904499466603 42.643666892412 124.68796572951197 H 0.0 **** 0.06
18021 C 64.60273239582153 29.32408808004368 38.733528878463844 C 0.0 **** -0.24
18022 H 64.44972663629756 30.176167691482362 39.396184343703126 H 0.0 **** 0.06
18023 H 65.57177976105226 29.415913502864854 38.2426775925734 H 0.0 **** 0.06
18024 H 63.81496743336555 29.302170144053463 37.98155240529542 H 0.0 **** 0.06
18025 H 64.57559666435895 28.40311117935879 39.3156189707171 H 0.0 **** 0.06
18026 C 159.6671070909165 150.95627108574234 83.58285479578194 C 0.0 **** -0.24
18027 H 159.0910482805035 150.10690043635665 83.95237403255697 H 0.0 **** 0.06
18028 H 159.91401828798524 151.6160426437035 84.4149750076854 H 0.0 **** 0.06
18029 H 159.0769848664705 151.50232721362715 82.8477601629013 H 0.0 **** 0.06
18030 H 160.58500983992354 150.59716339378014 83.11807218118392 H 0.0 **** 0.06
18031 C 37.293368592321556 11.48993994859319 176.6053370121852 C 0.0 **** -0.24
18032 H 38.0742091047953 10.814187398678769 176.25604591120955 H 0.0 **** 0.06
18033 H 37.22949557268626 11.43971337329873 177.69324521374725 H 0.0 **** 0.06
18034 H 36.33772108035167 11.196437434887997 176.1718571712023 H 0.0 **** 0.06
18035 H 37.53272362396268 12.509141766170671 176.3023130831792 H 0.0 **** 0.06
18036 C 157.57822404120492 190.79604180270894 166.92000260890228 C 0.0 **** -0.24
18037 H 157.96581606816505 191.79101705477223 166.69896783460112 H 0.0 **** 0.06
18038 H 156.61692132569328 190.66215269966784 166.4244468917359 H 0.0 **** 0.06
18039 H 157.4496070705291 190.68832264510493 167.99746535128847 H 0.0 **** 0.06
18040 H 158.28170718970625 190.04416011475763 166.56186146690362 H 0.0 **** 0.06
18041 C 45.45776875093844 126.29978549973131 122.60872101030151 C 0.0 **** -0.24
18042 H 45.86610604332802 127.24412357418814 122.24895728827951 H 0.0 **** 0.06
18043 H 44.567475832571716 126.49423511030662 123.20744429201861 H 0.0 **** 0.06
18044 H 46.20235442448069 125.79074050033148 123.2204366612745 H 0.0 **** 0.06
18045 H 45.194375204134815 125.6704710133273 121.75915654603412 H 0.0 **** 0.06
18046 C 5.444922348317618 31.87490194110717 165.34750595572476 C 0.0 **** -0.24
18047 H 5.612167931697002 30.82887853639096 165.08948338474443 H 0.0 **** 0.06
18048 H 4.380867008475491 32.039451091349235 165.520160277433 H 0.0 **** 0.06
18049 H 5.783529636587048 32.51032894892256 164.52978150173914 H 0.0 **** 0.06
18050 H 6.001961868092081 32.11855740405716 166.25258036517928 H 0.0 **** 0.06
18051 C 123.83739491380919 81.69274611666071 9.112639318758795 C 0.0 **** -0.24
18052 H 123.44095265130508 82.2316169231407 9.973310843275357 H 0.0 **** 0.06
18053 H 124.04686580855181 80.6613334109393 9.396197878716833 H 0.0 **** 0.06
18054 H 124.75669961811192 82.17169742718934 8.77738693719283 H 0.0 **** 0.06
18055 H 123.10496553723337 81.70766085725029 8.306351893283534 H 0.0 **** 0.06
18056 C 33.88262669503975 118.86248829206355 158.8745647946167 C 0.0 **** -0.24
18057 H 33.661094553256476 118.52633324666581 159.88809674001834 H 0.0 **** 0.06
18058 H 33.754643561388434 119.94398616718709 158.81620064033615 H 0.0 **** 0.06
18059 H 33.20332896039503 118.37795015807362 158.17389936356682 H 0.0 **** 0.06
18060 H 34.91046138670144 118.60372154470195 158.62268730004666 H 0.0 **** 0.06
18061 C 66.68457466706869 97.2877950079735 107.57288195892667 C 0.0 **** -0.24
18062 H 67.0843047316032 96.78928545189635 106.69019528413946 H 0.0 **** 0.06
18063 H 66.96000290934126 98.34262295697607 107.54955848266476 H 0.0 **** 0.06
18064 H 67.09728183182568 96.82402432875864 108.46959666605201 H 0.0 **** 0.06
18065 H 65.59860879406489 97.1953262537071 107.58279819040166 H 0.0 **** 0.06
18066 C 19.67431457044887 97.0819610259997 27.35440122834862 C 0.0 **** -0.24
18067 H 19.110990314255048 97.2193451676344 28.277644464347816 H 0.0 **** 0.06
18068 H 20.479482379093383 96.36565508914322 27.52421681363353 H 0.0 **** 0.06
18069 H 20.097239275030404 98.03649606043541 27.041886852309432 H 0.0 **** 0.06
18070 H 19.011091390269087 96.70565948755018 26.57612375346463 H 0.0 **** 0.06
18071 C 26.84920165251006 82.33014998761826 156.28150880209586 C 0.0 **** -0.24
18072 H 26.594600831737722 81.43383693291767 156.8459518763782 H 0.0 **** 0.06
18073 H 27.75893601340462 82.76971103645036 156.6888233362729 H 0.0 **** 0.06
18074 H 26.03297739228762 83.04851934800234 156.35487835882074 H 0.0 **** 0.06
18075 H 27.00841547889749 82.06742041863993 155.23589137467243 H 0.0 **** 0.06
18076 C 59.03497226836028 48.06504424857607 140.50712748947925 C 0.0 **** -0.24
18077 H 59.59128871233915 48.92092578922319 140.88868151464143 H 0.0 **** 0.06
18078 H 59.45150993959801 47.146891577677025 140.92181741191334 H 0.0 **** 0.06
18079 H 59.108381293544795 48.03976921001981 139.41967267191998 H 0.0 **** 0.06
18080 H 57.98820256691974 48.15334390998589 140.79875748523366 H 0.0 **** 0.06
18081 C 46.218559186369134 137.9945806380312 82.95740695763544 C 0.0 **** -0.24
18082 H 46.63685420476651 138.97149217992882 83.1991253717326 H 0.0 **** 0.06
18083 H 45.28225455499887 138.1254631269438 82.41500480846511 H 0.0 **** 0.06
18084 H 46.03236858280013 137.44215792257387 83.8784546688415 H 0.0 **** 0.06
18085 H 46.924068502635095 137.44122345868007 82.3375221931247 H 0.0 **** 0.06
18086 C 131.24692938313757 118.13506188142117 169.61781568350779 C 0.0 **** -0.24
18087 H 130.55126602185467 117.29597484244334 169.62854469634243 H 0.0 **** 0.06
18088 H 131.72670930702466 118.22137013040344 170.59263914914652 H 0.0 **** 0.06
18089 H 130.70400044782622 119.05441888836356 169.39638043965573 H 0.0 **** 0.06
18090 H 132.0046089566294 117.96810535331485 168.8524439723207 H 0.0 **** 0.06
18091 C 111.6678091603493 149.26771787771327 152.2941200689561 C 0.0 **** -0.24
18092 H 111.7980323606962 150.26017327092637 151.86241426972424 H 0.0 **** 0.06
18093 H 111.94836067186853 148.51281929252758 151.55831731105172 H 0.0 **** 0.06
18094 H 110.62402306966547 149.12871495345155 152.57709795370243 H 0.0 **** 0.06
18095 H 112.30068102948658 149.16927314284158 153.17565594283536 H 0.0 **** 0.06
18096 C 66.52976593465814 71.38046853083979 170.34519234453947 C 0.0 **** -0.24
18097 H 66.97846287393116 70.59674975736164 170.95503134704006 H 0.0 **** 0.06
18098 H 65.58685054081826 71.02314894131399 169.93005263905377 H 0.0 **** 0.06
18099 H 67.2080817373112 71.64369737764326 169.53461545588956 H 0.0 **** 0.06
18100 H 66.34456990286793 72.25966522844479 170.9640480028744 H 0.0 **** 0.06
18101 C 85.14141416829423 25.355570092164726 54.267951164494264 C 0.0 **** -0.24
18102 H 84.85232556173221 26.081256918841234 53.508028747231506 H 0.0 **** 0.06
18103 H 84.79156126463928 25.69158278470286 55.243964020085244 H 0.0 **** 0.06
18104 H 86.22783699945018 25.259929745941264 54.28382798050872 H 0.0 **** 0.06
18105 H 84.695439035564 24.38790319720823 54.03560084978207 H 0.0 **** 0.06
18106 C 95.09853296386947 164.4053806840127 130.47773375936856 C 0.0 **** -0.24
18107 H 96.16199204955936 164.62076134361064 130.37455612506503 H 0.0 **** 0.06
18108 H 94.808123041367 163.65317211907572 129.7434592464706 H 0.0 **** 0.06
18109 H 94.525525748387 165.3168420800739 130.31121496379782 H 0.0 **** 0.06
18110 H 94.9000414208545 164.02926121886577 131.48108161836626 H 0.0 **** 0.06
18111 C 8.755685207556809 174.72758994915975 85.95446887219424 C 0.0 **** -0.24
18112 H 9.343187658492695 175.3197294284877 85.25278347933784 H 0.0 **** 0.06
18113 H 9.362783304445031 174.49503287575348 86.82952761117954 H 0.0 **** 0.06
18114 H 8.441619460913671 173.80108272938048 85.47374154627389 H 0.0 **** 0.06
18115 H 7.876459807869253 175.2944309213424 86.26069214284806 H 0.0 **** 0.06
18116 C 124.73550038872543 130.2723659696423 47.248154852054725 C 0.0 **** -0.24
18117 H 124.93474823702033 130.2338224185065 48.31809145083976 H 0.0 **** 0.06
18118 H 124.36392609619688 131.26299762912925 46.98407500526052 H 0.0 **** 0.06
18119 H 123.9862281635514 129.52292746895085 46.99060529056362 H 0.0 **** 0.06
18120 H 125.65484561662367 130.07007974448035 46.69895879473491 H 0.0 **** 0.06
18121 C 172.95971538931653 29.45301469918168 145.9644460342193 C 0.0 **** -0.24
18122 H 173.55403575873203 29.412722013558167 146.87740522571852 H 0.0 **** 0.06
18123 H 173.53080787129556 29.94918072785636 145.18001928707616 H 0.0 **** 0.06
18124 H 172.04112487609078 30.008375306558207 146.1540475871142 H 0.0 **** 0.06
18125 H 172.71204797261328 28.43930751806242 145.64778484610963 H 0.0 **** 0.06
18126 C 19.153613288530636 46.65674697125927 171.7630022193234 C 0.0 **** -0.24
18127 H 19.755540726857816 46.72374118275917 172.66921897897177 H 0.0 **** 0.06
18128 H 18.59636753083103 47.58317953309414 171.62749747438315 H 0.0 **** 0.06
18129 H 18.456851452394574 45.82252193754907 171.8510206375251 H 0.0 **** 0.06
18130 H 19.8066646318336 46.49497105322777 170.90546786097119 H 0.0 **** 0.06
18131 C 21.11993406818391 168.63781901900933 150.26315658642108 C 0.0 **** -0.24
18132 H 21.505802821903444 167.653032237833 149.99950532959755 H 0.0 **** 0.06
18133 H 21.393822993312938 169.3543211436756 149.48874310224622 H 0.0 **** 0.06
18134 H 21.5460152829466 168.95116830767537 151.21624037289644 H 0.0 **** 0.06
18135 H 20.033695621342815 168.59056621638527 150.34790868443184 H 0.0 **** 0.06
18136 C 173.9398252778821 165.1912495881517 1.7838102730013645 C 0.0 **** -0.24
18137 H 173.95086421846435 165.07016913398542 0.7011998536015369 H 0.0 **** 0.06
18138 H 173.27841527951753 166.01547209721087 2.0516250620255505 H 0.0 **** 0.06
18139 H 174.949038052349 165.40558961111867 2.136273924020429 H 0.0 **** 0.06
18140 H 173.5815775860798 164.27155826661217 2.248083018019855 H 0.0 **** 0.06
18141 C 27.76396157819258 97.63614749617554 28.094545458194006 C 0.0 **** -0.24
18142 H 27.33023718304048 98.63242270349846 28.18569128542339 H 0.0 **** 0.06
18143 H 28.730721693316852 97.7051658954633 27.59569174641271 H 0.0 **** 0.06
18144 H 27.097316814716038 97.00268236924873 27.509669088753185 H 0.0 **** 0.06
18145 H 27.896114177264124 97.20601429073537 29.087199875823558 H 0.0 **** 0.06
18146 C 100.84366935345764 110.50216387160509 134.83718993222928 C 0.0 **** -0.24
18147 H 100.29229291802702 111.36633802105388 134.46593427918725 H 0.0 **** 0.06
18148 H 101.4493495242439 110.08466318308197 134.03269978704466 H 0.0 **** 0.06
18149 H 100.1399778600919 109.7492133649688 135.19167898997512 H 0.0 **** 0.06
18150 H 101.49132548683923 110.81016233878421 135.65825093315132 H 0.0 **** 0.06
18151 C 92.53403437867996 134.23398733423684 192.71267999074166 C 0.0 **** -0.24
18152 H 92.4887375479667 134.1987056835783 193.80114454390653 H 0.0 **** 0.06
18153 H 91.56886746959788 134.5552512757955 192.3192056818731 H 0.0 **** 0.06
18154 H 92.77283497013923 133.24336963788494 192.32741318586622 H 0.0 **** 0.06
18155 H 93.30602690885894 134.9400090521377 192.40394128998923 H 0.0 **** 0.06
18156 C 22.27255566218409 119.78259075645525 192.98457101644738 C 0.0 **** -0.24
18157 H 23.155024997555955 120.3118123264438 192.62490577466232 H 0.0 **** 0.06
18158 H 21.88157404595404 120.28791782368705 193.86752605911946 H 0.0 **** 0.06
18159 H 22.543102539526217 118.75807655978 193.24167361878435 H 0.0 **** 0.06
18160 H 21.511365769186682 119.77296495471978 192.20383290820382 H 0.0 **** 0.06
18161 C 95.4155082607272 82.41131977631437 140.85520121495895 C 0.0 **** -0.24
18162 H 94.7256924868625 81.72186558602894 141.34341615859014 H 0.0 **** 0.06
18163 H 95.37084970314592 83.38140584512269 141.35194999635777 H 0.0 **** 0.06
18164 H 95.13473448416093 82.52532928846122 139.80887642408715 H 0.0 **** 0.06
18165 H 96.42925675982329 82.01578683271211 140.91878859600791 H 0.0 **** 0.06
18166 C 199.1908983597042 116.36183981281118 168.41662430203755 C 0.0 **** -0.24
18167 H 199.92765493150665 116.9544999040371 168.9592498276806 H 0.0 **** 0.06
18168 H 199.57843231995298 115.35476635338841 168.2612049703455 H 0.0 **** 0.06
18169 H 198.98987764759727 116.82758041470734 167.4524085459282 H 0.0 **** 0.06
18170 H 198.26837156032522 116.31160219079374 168.9954396257822 H 0.0 **** 0.06
18171 C 29.109632253865186 48.72466698084122 113.50951725863641 C 0.0 **** -0.24
18172 H 29.820179731800565 48.774552034962426 114.33421443464232 H 0.0 **** 0.06
18173 H 29.26199870633957 47.79904320655561 112.95430938929229 H 0.0 **** 0.06
18174 H 29.2635426853126 49.57644014868143 112.8456251197278 H 0.0 **** 0.06
18175 H 28.094100093851722 48.751189238754506 113.9030292118355 H 0.0 **** 0.06
18176 C 11.273214664529462 65.87579015603299 60.77603868602836 C 0.0 **** -0.24
18177 H 11.225828911011831 64.9931226625987 61.41296909471109 H 0.0 **** 0.06
18178 H 10.610821788271778 65.74337881059165 59.92010725594719 H 0.0 **** 0.06
18179 H 12.295949372374764 66.01639669142833 60.425470270665755 H 0.0 **** 0.06
18180 H 10.960833571854494 66.75154042647046 61.3457984789942 H 0.0 **** 0.06
18181 C 22.498617063705638 45.423759066121136 165.4043366294653 C 0.0 **** -0.24
18182 H 22.87448909559157 44.457143303003974 165.0697834160997 H 0.0 **** 0.06
18183 H 22.45977647590945 45.442439285547906 166.49309285654468 H 0.0 **** 0.06
18184 H 21.497639257624684 45.58259223672536 165.00146299168333 H 0.0 **** 0.06
18185 H 23.16240980959003 46.213183982052385 165.05002856879736 H 0.0 **** 0.06
18186 C 129.9242717197945 145.94579651094392 142.575094086029 C 0.0 **** -0.24
18187 H 129.2710205784549 146.54754266756186 143.20638179826298 H 0.0 **** 0.06
18188 H 129.58596252540428 144.90930089135975 142.5862931569956 H 0.0 **** 0.06
18189 H 130.94510470918158 145.99983067677863 142.9539449916185 H 0.0 **** 0.06
18190 H 129.89488285004836 146.32749841180885 141.55476295082778 H 0.0 **** 0.06
18191 C 132.66360564630372 159.9854607089505 107.48562896745025 C 0.0 **** -0.24
18192 H 133.30255271141164 159.34977308918835 106.87298015164325 H 0.0 **** 0.06
18193 H 132.73052516883513 159.67282832108054 108.52722266413755 H 0.0 **** 0.06
18194 H 131.63172966888783 159.89923053157892 107.14517925568876 H 0.0 **** 0.06
18195 H 132.9898258692288 161.02219047696013 107.39534350778601 H 0.0 **** 0.06
18196 C 12.137006336103248 93.7212033123462 140.33398981205613 C 0.0 **** -0.24
18197 H 13.053107066571648 93.23043351615453 140.6641354806703 H 0.0 **** 0.06
18198 H 12.073543195257386 93.67613976377379 139.2467311535166 H 0.0 **** 0.06
18199 H 12.147260332803796 94.76263410027565 140.6554434634091 H 0.0 **** 0.06
18200 H 11.275835854029758 93.21441531367901 140.77043685986587 H 0.0 **** 0.06
18201 C 13.756358071365518 95.9222978667004 190.48187028002127 C 0.0 **** -0.24
18202 H 14.116819750363483 96.0850593717781 189.4656440378879 H 0.0 **** 0.06
18203 H 13.620051224499761 94.85446280557849 190.6510311334511 H 0.0 **** 0.06
18204 H 12.805041143904631 96.43659120698729 190.61601994617817 H 0.0 **** 0.06
18205 H 14.484585070110342 96.31360424515393 191.19203112905313 H 0.0 **** 0.06
18206 C 46.49149086622879 32.91564364775529 90.08237764581284 C 0.0 **** -0.24
18207 H 47.58155877271295 32.90507103214003 90.05077244769703 H 0.0 **** 0.06
18208 H 46.1012423673792 33.14888573743855 89.0909973202265 H 0.0 **** 0.06
18209 H 46.157040603196776 33.67251672416056 90.7920366167437 H 0.0 **** 0.06
18210 H 46.127871853349944 31.937410938532423 90.39617479706669 H 0.0 **** 0.06
18211 C 25.23748755038099 166.36717978953175 135.28675264185443 C 0.0 **** -0.24
18212 H 25.44323684117535 166.18179246083656 136.34076803085475 H 0.0 **** 0.06
18213 H 24.316755190003448 166.94294747440262 135.19077251959413 H 0.0 **** 0.06
18214 H 25.12814294983997 165.41530746043682 134.76587786202583 H 0.0 **** 0.06
18215 H 26.064118040686623 166.9274828722967 134.84845913581444 H 0.0 **** 0.06
18216 C 156.70732895220658 28.087303151678455 35.99042316559219 C 0.0 **** -0.24
18217 H 155.90847259165858 27.89656436199259 35.27337789176157 H 0.0 **** 0.06
18218 H 157.48829097908072 28.67997415496349 35.51427710409041 H 0.0 **** 0.06
18219 H 157.1251982304922 27.13900092667491 36.3272596576885 H 0.0 **** 0.06
18220 H 156.30556023341603 28.631815287068065 36.84525129161115 H 0.0 **** 0.06
18221 C 161.36754159427255 78.54729301611479 71.10153337355848 C 0.0 **** -0.24
18222 H 161.13014457697966 79.02922080344328 72.05038160383282 H 0.0 **** 0.06
18223 H 160.58672961668378 78.7729881345931 70.37525102401662 H 0.0 **** 0.06
18224 H 161.42773956035913 77.4685680459552 71.24771250198093 H 0.0 **** 0.06
18225 H 162.32431117982767 78.91890208660357 70.73483821638843 H 0.0 **** 0.06
18226 C 19.359579448507915 5.67549148585924 77.81781004578272 C 0.0 **** -0.24
18227 H 20.060749155138083 6.466838526454012 78.0834989501576 H 0.0 **** 0.06
18228 H 19.065242444459585 5.133931210934797 78.71610779829484 H 0.0 **** 0.06
18229 H 19.83681236192868 4.988836183852207 77.11907124514562 H 0.0 **** 0.06
18230 H 18.477192397808878 6.113622411434477 77.35130166518468 H 0.0 **** 0.06
18231 C 187.07964060873826 28.5908802699837 61.85467737982981 C 0.0 **** -0.24
18232 H 186.06466884607812 28.87302674831838 62.13462982058206 H 0.0 **** 0.06
18233 H 187.42263166322863 27.780892572966735 62.498593333138956 H 0.0 **** 0.06
18234 H 187.74045679992756 29.45112439151478 61.96918385160092 H 0.0 **** 0.06
18235 H 187.09149228467783 28.260589839373097 60.81604681555791 H 0.0 **** 0.06
18236 C 153.36061157945008 17.500623283558497 98.13092809061123 C 0.0 **** -0.24
18237 H 153.3223784274827 16.410680676762993 98.13267486732136 H 0.0 **** 0.06
18238 H 153.26983821776474 17.868819947517594 99.15287823504332 H 0.0 **** 0.06
18239 H 152.54162458966556 17.892283233601134 97.52858396002918 H 0.0 **** 0.06
18240 H 154.31096087803414 17.82885512782856 97.7096873582002 H 0.0 **** 0.06
18241 C 31.026262552474634 38.77270672765046 87.3787030293833 C 0.0 **** -0.24
18242 H 30.55770594498445 37.808866246222394 87.18162969663564 H 0.0 **** 0.06
18243 H 32.10899779963046 38.652182864818 87.40211349682784 H 0.0 **** 0.06
18244 H 30.682418977741037 39.15365648061096 88.34060353099869 H 0.0 **** 0.06
18245 H 30.75517809775694 39.4759521642453 86.59110556746236 H 0.0 **** 0.06
18246 C 80.38592469991076 53.442525461753064 28.27340383956384 C 0.0 **** -0.24
18247 H 79.65164190324552 54.0640820215022 27.760828086316124 H 0.0 **** 0.06
18248 H 79.91818714925006 52.96176740130829 29.133155533068347 H 0.0 **** 0.06
18249 H 81.2150487029376 54.06448694287661 28.611093031831444 H 0.0 **** 0.06
18250 H 80.75815636892258 52.68126658722892 27.589090932244687 H 0.0 **** 0.06
18251 C 86.20051801716056 45.03969865940317 165.6059410355108 C 0.0 **** -0.24
18252 H 86.46680965145248 46.047463082359215 165.2876293806467 H 0.0 **** 0.06
18253 H 87.08441250034107 44.539762640750354 166.00359066614897 H 0.0 **** 0.06
18254 H 85.8172465677606 44.4791030735996 164.75302938777816 H 0.0 **** 0.06
18255 H 85.43344330592512 45.093870870338705 166.37949677131502 H 0.0 **** 0.06
18256 C 34.3951732975099 181.51515880175708 14.68058336684777 C 0.0 **** -0.24
18257 H 33.621121429309824 181.0265470948076 15.272283447495028 H 0.0 **** 0.06
18258 H 34.78454023815357 180.81289091535834 13.943217180948722 H 0.0 **** 0.06
18259 H 35.203071932288765 181.8398011955136 15.336664005018179 H 0.0 **** 0.06
18260 H 33.97028204579391 182.37958472141554 14.171873329170182 H 0.0 **** 0.06
18261 C 124.96539667854157 189.18044748956675 47.8387806808275 C 0.0 **** -0.24
18262 H 125.37000539215529 189.87003077771112 48.579078824838405 H 0.0 **** 0.06
18263 H 124.40431995798494 189.73837700570067 47.089552920676525 H 0.0 **** 0.06
18264 H 124.30524419300951 188.46527529722533 48.330114707746304 H 0.0 **** 0.06
18265 H 125.78357128204973 188.64586594051497 47.35562586170843 H 0.0 **** 0.06
18266 C 162.7834449509902 75.18923575419495 151.6287592538041 C 0.0 **** -0.24
18267 H 163.54266648276902 75.9172642256736 151.34253748938062 H 0.0 **** 0.06
18268 H 162.00837633737768 75.68524378101458 152.2131233241957 H 0.0 **** 0.06
18269 H 163.24211401317453 74.40195980860526 152.2266546875206 H 0.0 **** 0.06
18270 H 162.34072534475405 74.75444339378261 150.732381183261 H 0.0 **** 0.06
18271 C 34.93622343128706 68.83821392841651 120.17636028167132 C 0.0 **** -0.24
18272 H 34.230710783245115 69.40837371463905 120.7816184307236 H 0.0 **** 0.06
18273 H 35.83303473289698 68.63327280253026 120.76146823565153 H 0.0 **** 0.06
18274 H 35.20323656444634 69.41585785936144 119.29097156763257 H 0.0 **** 0.06
18275 H 34.476596150140665 67.89826806177945 119.87304496150938 H 0.0 **** 0.06
18276 C 152.93682866530588 0.07750684039855571 163.19465073201974 C 0.0 **** -0.24
18277 H 152.9517311220576 0.7086807299855451 164.08259166321722 H 0.0 **** 0.06
18278 H 153.93737293591488 0.029351840998678824 162.76550398612102 H 0.0 **** 0.06
18279 H 152.24652145370135 0.4968807693475128 162.46242730072828 H 0.0 **** 0.06
18280 H 152.60951017660972 -0.9259498606021452 163.46773304573253 H 0.0 **** 0.06
18281 C 80.66871818211794 127.24580270596948 167.07917644291376 C 0.0 **** -0.24
18282 H 81.51266568009231 127.01030799979299 167.72728641721054 H 0.0 **** 0.06
18283 H 80.30880413515689 126.33243983880595 166.60559769252384 H 0.0 **** 0.06
18284 H 80.98564265497131 127.9525405734907 166.3118465525195 H 0.0 **** 0.06
18285 H 79.86841086892079 127.68866477345057 167.6721351923068 H 0.0 **** 0.06
18286 C 191.6549578716858 51.48153916830614 108.93758342205948 C 0.0 **** -0.24
18287 H 191.6076982931942 50.398234109044125 109.05112801924395 H 0.0 **** 0.06
18288 H 190.8440201223534 51.94036145684703 109.50354080915295 H 0.0 **** 0.06
18289 H 191.55564023595576 51.74131607830117 107.88425601832353 H 0.0 **** 0.06
18290 H 192.61187791784548 51.8447372365562 109.31324535039118 H 0.0 **** 0.06
18291 C 188.07641186886315 63.2383656361813 152.2447718283721 C 0.0 **** -0.24
18292 H 188.16904109148115 64.24797047816106 151.8454604763588 H 0.0 **** 0.06
18293 H 188.99770946656534 62.96731895330619 152.76177583780873 H 0.0 **** 0.06
18294 H 187.89826504021664 62.539311199305644 151.42811139235707 H 0.0 **** 0.06
18295 H 187.24188153994348 63.20016389814772 152.94505994337516 H 0.0 **** 0.06
18296 C 111.88382209557366 102.61133952919062 152.2530308158242 C 0.0 **** -0.24
18297 H 111.9693538741817 103.66999326379542 152.00566207830485 H 0.0 **** 0.06
18298 H 111.71087225784191 102.03920280696133 151.34101238010703 H 0.0 **** 0.06
18299 H 111.04915226320219 102.46500283281335 152.93920028626297 H 0.0 **** 0.06
18300 H 112.80597817754068 102.27303916703937 152.72556939414133 H 0.0 **** 0.06
18301 C 46.921664098864284 38.96115833526818 165.2961519957695 C 0.0 **** -0.24
18302 H 47.37089331722406 38.800957249380644 166.27631443418352 H 0.0 **** 0.06
18303 H 47.448697995982016 39.764875447676005 164.7819849444507 H 0.0 **** 0.06
18304 H 45.872886052252625 39.23243094683603 165.41658645887594 H 0.0 **** 0.06
18305 H 46.99493743146891 38.045402468784715 164.70902261738829 H 0.0 **** 0.06
18306 C 170.63398053388175 117.32025811610507 194.6683343697518 C 0.0 **** -0.24
18307 H 169.84615185547423 117.22975196216925 195.41621289849888 H 0.0 **** 0.06
18308 H 170.62833660082262 116.43938598205565 194.02689684602905 H 0.0 **** 0.06
18309 H 171.5999023598989 117.4023604050021 195.16658924467674 H 0.0 **** 0.06
18310 H 170.45964533347345 118.21091334759313 194.06437395226396 H 0.0 **** 0.06
18311 C 69.11169482850715 122.971915758389 14.227565290336102 C 0.0 **** -0.24
18312 H 69.6619237123151 123.17401040843123 15.14650958087357 H 0.0 **** 0.06
18313 H 69.16491248758584 121.90710539829959 13.998902922977258 H 0.0 **** 0.06
18314 H 69.55157320027932 123.5415218444792 13.408149257519817 H 0.0 **** 0.06
18315 H 68.0699706515833 123.26470952006889 14.355542699410528 H 0.0 **** 0.06
18316 C 153.07899986410467 111.22059527192502 176.0304571920471 C 0.0 **** -0.24
18317 H 152.57003856739814 111.22909084180594 176.99463400161042 H 0.0 **** 0.06
18318 H 153.45899500322085 112.21838038025797 175.81079778124396 H 0.0 **** 0.06
18319 H 152.37746335494916 110.91893360044261 175.25263751770575 H 0.0 **** 0.06
18320 H 153.90848444313372 110.51406392723524 176.06490252958372 H 0.0 **** 0.06
18321 C 169.64512231938886 83.39943439134692 87.99757677614778 C 0.0 **** -0.24
18322 H 170.02459422317733 82.37966959518127 88.06608610475249 H 0.0 **** 0.06
18323 H 168.7026048493961 83.47345067903348 88.53989041819247 H 0.0 **** 0.06
18324 H 169.48353626513764 83.65614264662554 86.95050585839911 H 0.0 **** 0.06
18325 H 170.3704457999175 84.08737331268378 88.4320057933833 H 0.0 **** 0.06
18326 C 41.841367041318335 49.70259573058803 111.5808197939516 C 0.0 **** -0.24
18327 H 42.5402766868649 50.49887471845284 111.8336611033966 H 0.0 **** 0.06
18328 H 40.828112636773426 50.10593488210543 111.54698527100942 H 0.0 **** 0.06
18329 H 41.89524267090047 48.91778049653669 112.33546749467774 H 0.0 **** 0.06
18330 H 42.099715214694754 49.288248087098054 110.60662272934007 H 0.0 **** 0.06
18331 C 174.99492368196158 92.69937743354376 101.76903331350485 C 0.0 **** -0.24
18332 H 174.94820269958868 92.39010906662611 100.7253427999301 H 0.0 **** 0.06
18333 H 175.3262298304629 91.86039828186014 102.38170853023439 H 0.0 **** 0.06
18334 H 174.0065249859445 93.02186232043601 102.09830254175753 H 0.0 **** 0.06
18335 H 175.69926047208475 93.52526928273863 101.87208687771951 H 0.0 **** 0.06
18336 C 77.80925232162632 178.62088594670277 155.44372459194966 C 0.0 **** -0.24
18337 H 77.02594699962692 178.15267473532325 156.04040770039987 H 0.0 **** 0.06
18338 H 78.00639766551566 178.01185460820938 154.56173070550423 H 0.0 **** 0.06
18339 H 78.71814927252728 178.70237087251923 156.04017260316957 H 0.0 **** 0.06
18340 H 77.48508203170675 179.61480289462983 155.13598704707528 H 0.0 **** 0.06
18341 C 21.93301004449438 181.5839035154671 153.98536493739095 C 0.0 **** -0.24
18342 H 22.021444740112088 181.58707814352854 155.072176755457 H 0.0 **** 0.06
18343 H 20.91799999444339 181.30309647542464 153.70507816049104 H 0.0 **** 0.06
18344 H 22.6383171498386 180.86696767909842 153.56549999693715 H 0.0 **** 0.06
18345 H 22.155103626541234 182.57892760669222 153.60073243152604 H 0.0 **** 0.06
18346 C 147.97483529586623 158.9600053380908 121.42937981561815 C 0.0 **** -0.24
18347 H 148.98352893806324 159.16259693178353 121.0680634925688 H 0.0 **** 0.06
18348 H 147.66611622921707 157.96601763763343 121.10401126314395 H 0.0 **** 0.06
18349 H 147.2891687825893 159.70435350850255 121.02520422977983 H 0.0 **** 0.06
18350 H 147.96317935458214 159.00687732687538 122.51760672436839 H 0.0 **** 0.06
18351 C 42.914289808085414 171.04390438474124 122.98838905095693 C 0.0 **** -0.24
18352 H 42.158352250773476 170.36041332932115 123.37458079249683 H 0.0 **** 0.06
18353 H 42.451781685228866 171.7384261807699 122.28698517551683 H 0.0 **** 0.06
18354 H 43.691572610371 170.4751728461525 122.47839830962619 H 0.0 **** 0.06
18355 H 43.354506975635644 171.60124028064342 123.8155850610363 H 0.0 **** 0.06
18356 C 159.95518895004057 37.4676327752955 135.65377869478263 C 0.0 **** -0.24
18357 H 160.0496583336437 37.507715741582246 134.56790365257422 H 0.0 **** 0.06
18358 H 160.82060420074592 37.947089780625745 136.11126214417578 H 0.0 **** 0.06
18359 H 159.90360732108346 36.42681882885091 135.97533020502837 H 0.0 **** 0.06
18360 H 159.04760302134542 37.98805836238601 135.95867812091626 H 0.0 **** 0.06
18361 C 180.0750308254814 147.74736532142 74.0588646731812 C 0.0 **** -0.24
18362 H 180.76257363531982 146.95955566596734 73.75067882204596 H 0.0 **** 0.06
18363 H 179.1987550549275 147.73994569282658 73.41008318365255 H 0.0 **** 0.06
18364 H 180.57379097942137 148.7143360440709 73.98408071448155 H 0.0 **** 0.06
18365 H 179.76627745943895 147.5763067493813 75.08966144521948 H 0.0 **** 0.06
18366 C 135.22564360525115 126.24276358498159 129.0080927165944 C 0.0 **** -0.24
18367 H 135.0736295772397 125.40157198582656 129.68530401124497 H 0.0 **** 0.06
18368 H 134.2923790687912 126.79639288951645 128.90329009989185 H 0.0 **** 0.06
18369 H 135.53980308670467 125.87122642183897 128.03239007103153 H 0.0 **** 0.06
18370 H 135.99527147385106 126.89972797781334 129.41249029203496 H 0.0 **** 0.06
18371 C 149.71407983532254 100.83938129584041 133.70193339310902 C 0.0 **** -0.24
18372 H 150.0026499967214 100.60215845545338 134.72604680175215 H 0.0 **** 0.06
18373 H 150.49626133302093 101.43659547020755 133.23334080264738 H 0.0 **** 0.06
18374 H 148.7810446324316 101.40184759266737 133.70814892044768 H 0.0 **** 0.06
18375 H 149.57710438353553 99.91481444528654 133.14015000937297 H 0.0 **** 0.06
18376 C 5.0583367473158205 191.04202606980283 107.56299610895024 C 0.0 **** -0.24
18377 H 5.218519947059178 190.02108679812943 107.90869976109136 H 0.0 **** 0.06
18378 H 5.9815205866597125 191.4289082695657 107.13217661923943 H 0.0 **** 0.06
18379 H 4.7585676694719155 191.66747956310925 108.4042613017879 H 0.0 **** 0.06
18380 H 4.273145880106142 191.04998643477853 106.80662541308382 H 0.0 **** 0.06
18381 C 142.67756233355365 92.4444947909941 69.05701842488804 C 0.0 **** -0.24
18382 H 142.85445858352045 91.86686642025472 69.96496384755616 H 0.0 **** 0.06
18383 H 142.6771584616232 93.50718704427698 69.29856279854806 H 0.0 **** 0.06
18384 H 141.71256083683113 92.16683227038175 68.6332846483412 H 0.0 **** 0.06
18385 H 143.46597180905138 92.2355470145165 68.33419479509945 H 0.0 **** 0.06
18386 C 91.94400030472036 70.32677819267049 185.06486751898547 C 0.0 **** -0.24
18387 H 92.62246848639109 70.83411000592058 184.37875816356757 H 0.0 **** 0.06
18388 H 91.96950189237654 69.25412318569789 184.87430105933902 H 0.0 **** 0.06
18389 H 90.93036464934195 70.69965361126152 184.914712988732 H 0.0 **** 0.06
18390 H 92.25384021577128 70.52262476806304 186.09105123343 H 0.0 **** 0.06
18391 C 125.98763177980675 48.75173568963139 100.74430787756827 C 0.0 **** -0.24
18392 H 126.98444938657656 49.190533002999615 100.69005586191437 H 0.0 **** 0.06
18393 H 125.46416336918548 49.14849136933017 101.6147333235798 H 0.0 **** 0.06
18394 H 126.07096110347129 47.669270943108614 100.83134774568495 H 0.0 **** 0.06
18395 H 125.43176965477164 49.002278497043534 99.84070825103956 H 0.0 **** 0.06
18396 C 140.14084125305595 39.53522033766485 3.8341104912789916 C 0.0 **** -0.24
18397 H 140.062659199267 40.171966975298986 4.715552478497592 H 0.0 **** 0.06
18398 H 139.18661535103874 39.52764339566248 3.306057246592758 H 0.0 **** 0.06
18399 H 140.39561318197661 38.52096060434819 4.139929260326724 H 0.0 **** 0.06
18400 H 140.91783961791973 39.921885310817515 3.175239179443274 H 0.0 **** 0.06
18401 C 96.24664410603293 1.2901022315872126 94.8079415691187 C 0.0 **** -0.24
18402 H 96.7674447001541 1.7315649833271607 95.65824156594306 H 0.0 **** 0.06
18403 H 95.17109067286617 1.3330944795806374 94.97879283770601 H 0.0 **** 0.06
18404 H 96.5553492534799 0.25186096419912474 94.69185601841946 H 0.0 **** 0.06
18405 H 96.49329383938527 1.846230433894931 93.90326702893071 H 0.0 **** 0.06
18406 C 139.12911815374696 38.29129306471907 137.51504423834177 C 0.0 **** -0.24
18407 H 138.6378473249132 38.9128503996003 138.2630001951107 H 0.0 **** 0.06
18408 H 139.34159253672271 38.88951128086467 136.62892388120926 H 0.0 **** 0.06
18409 H 138.47484040241494 37.4618862493507 137.2461564452953 H 0.0 **** 0.06
18410 H 140.06099695228608 37.90078608707279 137.9228393681229 H 0.0 **** 0.06
18411 C 55.47207606378623 24.628052055086386 47.322914989775256 C 0.0 **** -0.24
18412 H 55.238205095034516 23.79371715753834 46.66214474493813 H 0.0 **** 0.06
18413 H 54.54608926891541 25.09572287551471 47.6589211841374 H 0.0 **** 0.06
18414 H 56.07459750261671 25.359261655435162 46.785585405501195 H 0.0 **** 0.06
18415 H 56.028542640816 24.261669091538806 48.1859399998458 H 0.0 **** 0.06
18416 C 159.92827201922915 86.0045227942827 45.7017948329987 C 0.0 **** -0.24
18417 H 160.52148604295985 86.75935241526497 46.2171568704575 H 0.0 **** 0.06
18418 H 159.41465527275113 85.38339684618279 46.435157677664876 H 0.0 **** 0.06
18419 H 160.58388554196887 85.3821254014498 45.09233844550491 H 0.0 **** 0.06
18420 H 159.19482406807947 86.49416669034144 45.0611157856315 H 0.0 **** 0.06
18421 C 192.6375605553476 192.42570169446302 70.5181220067891 C 0.0 **** -0.24
18422 H 193.13041336278812 191.45987748203783 70.62489916741009 H 0.0 **** 0.06
18423 H 193.27055856950227 193.20549932575332 70.94156486013532 H 0.0 **** 0.06
18424 H 191.6827032533154 192.40631861914522 71.04475996703479 H 0.0 **** 0.06
18425 H 192.46539468225285 192.63171480094135 69.46177538225712 H 0.0 **** 0.06
18426 C 49.738155801320914 77.45753328639397 184.0848452879151 C 0.0 **** -0.24
18427 H 49.7437759769341 78.03600929721887 183.1614853458296 H 0.0 **** 0.06
18428 H 49.66928098560432 76.3952029008768 183.84856131449274 H 0.0 **** 0.06
18429 H 48.88051498871293 77.75082522408516 184.69148174413982 H 0.0 **** 0.06
18430 H 50.656922693317156 77.64813144835877 184.63853689710342 H 0.0 **** 0.06
18431 C 63.46184862573364 123.1859527694462 36.34820253590982 C 0.0 **** -0.24
18432 H 64.29557986538333 122.91586855893709 36.99845055132698 H 0.0 **** 0.06
18433 H 62.80704451112558 123.8845839643848 36.86937497890489 H 0.0 **** 0.06
18434 H 62.901612837916616 122.28859138465484 36.085240384429426 H 0.0 **** 0.06
18435 H 63.845575938731486 123.65369214718805 35.44197911529852 H 0.0 **** 0.06
18436 C 24.56068726401992 148.09365909633334 79.88064150103136 C 0.0 **** -0.24
18437 H 24.090054367925575 148.6440839536565 79.06553423672295 H 0.0 **** 0.06
18438 H 24.47390249967964 148.66838790326506 80.80342474371679 H 0.0 **** 0.06
18439 H 25.61287639909699 147.93224369110533 79.64975248448698 H 0.0 **** 0.06
18440 H 24.063208664077592 147.1312121803354 80.00379050528178 H 0.0 **** 0.06
18441 C 54.903301919027456 69.83692233050633 105.82392445454482 C 0.0 **** -0.24
18442 H 55.502294267532136 70.2039832932858 106.65764929501799 H 0.0 **** 0.06
18443 H 53.85728956491744 70.1015681068633 105.98599080230696 H 0.0 **** 0.06
18444 H 54.99875681200953 68.75393622630156 105.75651444399256 H 0.0 **** 0.06
18445 H 55.25377336138439 70.29120296409664 104.89749175710091 H 0.0 **** 0.06
18446 C 155.99681820212788 17.765648421324258 39.543530063677 C 0.0 **** -0.24
18447 H 156.47194135204552 17.660982804948006 38.56877586067549 H 0.0 **** 0.06
18448 H 155.4413173719173 18.702982711989264 39.57867183659374 H 0.0 **** 0.06
18449 H 156.76007061051592 17.765670779982017 40.32208542837839 H 0.0 **** 0.06
18450 H 155.31299385844034 16.93178449125388 39.70543719224236 H 0.0 **** 0.06
18451 C 2.755640434360089 103.02943025116403 28.961999984611552 C 0.0 **** -0.24
18452 H 3.088974211598753 103.80173990454384 29.65492499230875 H 0.0 **** 0.06
18453 H 2.0080434961801643 102.40285204331784 29.449481545532322 H 0.0 **** 0.06
18454 H 3.6066659668024954 102.41622564997942 28.66544080852968 H 0.0 **** 0.06
18455 H 2.319906146273752 103.49700878403831 28.079117984931557 H 0.0 **** 0.06
18456 C 143.27132072873326 109.29197163749055 151.79533776384685 C 0.0 **** -0.24
18457 H 142.2832747931037 108.96944641352155 151.4688881295205 H 0.0 **** 0.06
18458 H 143.85376587034165 108.42290428370939 152.1028036880636 H 0.0 **** 0.06
18459 H 143.16975823300757 109.97735757928885 152.63669788259182 H 0.0 **** 0.06
18460 H 143.77886814206224 109.79776836330964 150.97425922500065 H 0.0 **** 0.06
18461 C 144.4775579340761 129.31399679179 102.8636693209314 C 0.0 **** -0.24
18462 H 145.35735701751696 128.71034760208593 103.08370769016454 H 0.0 **** 0.06
18463 H 143.60202287828017 128.6674456774287 102.79269229717914 H 0.0 **** 0.06
18464 H 144.62233308305716 129.83438569140404 101.91679697647783 H 0.0 **** 0.06
18465 H 144.328623945683 130.04316309478523 103.66022619758897 H 0.0 **** 0.06
18466 C 51.66402693513163 8.030251983260435 158.66132730512106 C 0.0 **** -0.24
18467 H 52.11942704145639 8.784133112794251 159.3043713879349 H 0.0 **** 0.06
18468 H 52.32483311386741 7.824478280590874 157.818791207101 H 0.0 **** 0.06
18469 H 50.70696536318229 8.400258331208533 158.29139870761475 H 0.0 **** 0.06
18470 H 51.50363536400664 7.115617550113548 159.23133086663276 H 0.0 **** 0.06
18471 C 71.0752014206624 161.05500868184788 103.65218901496405 C 0.0 **** -0.24
18472 H 71.15531741070274 160.00509720997644 103.93591253553086 H 0.0 **** 0.06
18473 H 70.31460655641047 161.16390595425167 102.8784490463238 H 0.0 **** 0.06
18474 H 72.0350719710941 161.40165398780994 103.27063925566199 H 0.0 **** 0.06
18475 H 70.7952561710577 161.64628256135398 104.52341660600928 H 0.0 **** 0.06
18476 C 42.24222912584901 54.78301143837757 191.31592154416822 C 0.0 **** -0.24
18477 H 41.29361032907404 54.676310033181494 191.8422834686747 H 0.0 **** 0.06
18478 H 42.734957995237664 55.70091042290119 191.63555787585187 H 0.0 **** 0.06
18479 H 42.05855073491553 54.82314547886921 190.242561317707 H 0.0 **** 0.06
18480 H 42.880931718326366 53.92938853712059 191.54325747909223 H 0.0 **** 0.06
18481 C 30.196229805251022 148.95484163400192 60.480639143216365 C 0.0 **** -0.24
18482 H 29.60751094585993 148.81124760499534 61.386527953268114 H 0.0 **** 0.06
18483 H 30.6798229313477 149.93093777028793 60.51184319089225 H 0.0 **** 0.06
18484 H 29.542640586911517 148.9001697017239 59.609814359172816 H 0.0 **** 0.06
18485 H 30.956260562510863 148.17520479115015 60.414439734779535 H 0.0 **** 0.06
18486 C 11.761201702482651 69.95720608391807 99.43436144139548 C 0.0 **** -0.24
18487 H 10.759295096252401 69.7461107380167 99.80881250661781 H 0.0 **** 0.06
18488 H 12.381529028945636 69.06670700304971 99.53534200863999 H 0.0 **** 0.06
18489 H 12.199196734437066 70.77338358045954 100.0081395423183 H 0.0 **** 0.06
18490 H 11.70199995742729 70.2427740597778 98.38366320368192 H 0.0 **** 0.06
18491 C 173.29179649484738 138.171104618732 132.4121145721698 C 0.0 **** -0.24
18492 H 173.85110020347526 137.32630215353356 132.81478050134965 H 0.0 **** 0.06
18493 H 172.71176222544617 137.84492262826825 131.54835982969823 H 0.0 **** 0.06
18494 H 173.98502377311948 138.95551173484392 132.10979672475355 H 0.0 **** 0.06
18495 H 172.61724591823346 138.55687712210624 133.17658614187184 H 0.0 **** 0.06
18496 C 91.67097959420255 133.15004055168956 59.816061633084445 C 0.0 **** -0.24
18497 H 91.0028430995535 133.6874265828311 60.48887777097285 H 0.0 **** 0.06
18498 H 92.51014485104827 132.74658801844066 60.38288383700416 H 0.0 **** 0.06
18499 H 92.04216828585692 133.83244531554726 59.05159033156512 H 0.0 **** 0.06
18500 H 91.12660842928994 132.33269323279117 59.34148064913667 H 0.0 **** 0.06
18501 C 194.5684223021728 161.64090345277125 45.50557850351109 C 0.0 **** -0.24
18502 H 193.87774059858424 162.03455569599873 44.76120471656651 H 0.0 **** 0.06
18503 H 194.7015616881908 162.37539517026565 46.30067757339083 H 0.0 **** 0.06
18504 H 195.530512090745 161.43500402390146 45.0358292526893 H 0.0 **** 0.06
18505 H 194.16484013548043 160.7196188056232 45.92567339333482 H 0.0 **** 0.06
18506 C 153.00122865922978 195.820607681031 146.70600157647547 C 0.0 **** -0.24
18507 H 152.50306177862862 195.6676865163927 145.74817717824487 H 0.0 **** 0.06
18508 H 152.76295163317727 194.99321155659044 147.37547258091425 H 0.0 **** 0.06
18509 H 152.6571152571248 196.75594199709025 147.1482225411806 H 0.0 **** 0.06
18510 H 154.07897151169865 195.8658717221807 146.55213093422944 H 0.0 **** 0.06
18511 C 162.14094041731906 173.34361873146315 106.78222727628503 C 0.0 **** -0.24
18512 H 161.29871647561214 173.76999360631487 107.32510381086342 H 0.0 **** 0.06
18513 H 162.65534418252116 174.13175497525805 106.23154794156619 H 0.0 **** 0.06
18514 H 161.77921369546357 172.5896061113055 106.08359617481972 H 0.0 **** 0.06
18515 H 162.83242927612164 172.88357120481865 107.48764849723057 H 0.0 **** 0.06
18516 C 49.30981591818079 114.4818519369407 30.13446303690364 C 0.0 **** -0.24
18517 H 48.72941552312352 113.59874796198866 30.398953873619888 H 0.0 **** 0.06
18518 H 48.634403498446886 115.29018606688325 29.852800654528664 H 0.0 **** 0.06
18519 H 49.96492181863948 114.24666980972691 29.295356179124667 H 0.0 **** 0.06
18520 H 49.911548175713165 114.79122951987702 30.988839111149645 H 0.0 **** 0.06
18521 C 132.29786296740264 183.4198158954185 190.71618951770535 C 0.0 **** -0.24
18522 H 132.86753901769234 184.3280989045173 190.91410583316772 H 0.0 **** 0.06
18523 H 132.97719019709723 182.62345890539822 190.41368543209313 H 0.0 **** 0.06
18524 H 131.57973304391155 183.6092298541729 189.91864739466283 H 0.0 **** 0.06
18525 H 131.76732847040464 183.12134210498306 191.62048052752175 H 0.0 **** 0.06
18526 C 14.473623245484276 98.29557465156233 34.08766209156772 C 0.0 **** -0.24
18527 H 14.769647579239518 97.29793406611509 33.765785555825175 H 0.0 **** 0.06
18528 H 14.977517278235325 99.03980905600758 33.472168301642796 H 0.0 **** 0.06
18529 H 14.751333367265886 98.43772561725518 35.132068561203226 H 0.0 **** 0.06
18530 H 13.393989651685132 98.40546590444751 33.980971328685854 H 0.0 **** 0.06
18531 C 106.97123028133137 86.46030625758041 69.09562947288964 C 0.0 **** -0.24
18532 H 106.37324510585358 87.37150078857769 69.11767361565387 H 0.0 **** 0.06
18533 H 107.68557555911599 86.47512765817325 69.91853093923021 H 0.0 **** 0.06
18534 H 107.50715040346708 86.39982749222614 68.14892170234316 H 0.0 **** 0.06
18535 H 106.31672619967588 85.59458463271275 69.19840186391411 H 0.0 **** 0.06
18536 C 32.21149529514082 63.145629300820715 8.556914748939704 C 0.0 **** -0.24
18537 H 32.548943045143574 62.382382607701715 9.25922751221745 H 0.0 **** 0.06
18538 H 32.414628064893094 62.815885948811754 7.537651240783532 H 0.0 **** 0.06
18539 H 32.744313802175725 64.07718592724525 8.751356007139748 H 0.0 **** 0.06
18540 H 31.141073894910704 63.30592679048323 8.68204029616183 H 0.0 **** 0.06
18541 C 90.09668593913841 121.73567523844798 44.900371901524736 C 0.0 **** -0.24
18542 H 91.06057146921398 121.22891716702509 44.85910916965361 H 0.0 **** 0.06
18543 H 89.60067088771291 121.49785728412724 45.841972345142224 H 0.0 **** 0.06
18544 H 89.4749014359304 121.40209570670538 44.06823101291843 H 0.0 **** 0.06
18545 H 90.249598403003 122.81232924964388 44.83085509997625 H 0.0 **** 0.06
18546 C 98.18362862765088 132.6450032760225 83.81167542438303 C 0.0 **** -0.24
18547 H 98.79184753702995 133.5436807818151 83.91884445624981 H 0.0 **** 0.06
18548 H 97.74055145058475 132.3910682279048 84.77535966664556 H 0.0 **** 0.06
18549 H 98.80971230899914 131.82087267371736 83.4712145093655 H 0.0 **** 0.06
18550 H 97.39303773387854 132.8265576953082 83.08349775594823 H 0.0 **** 0.06
18551 C 153.47327267593366 155.79185172554344 24.493391331467492 C 0.0 **** -0.24
18552 H 153.4962379088554 156.20455467450782 23.485653012624255 H 0.0 **** 0.06
18553 H 154.29553451523984 156.20838014556557 25.075777148602924 H 0.0 **** 0.06
18554 H 153.57717573541 154.7077077723555 24.444619056006147 H 0.0 **** 0.06
18555 H 152.52557721399376 156.0443491741714 24.968569217073806 H 0.0 **** 0.06
18556 C 126.5560387212148 87.59924786461733 153.8916776455383 C 0.0 **** -0.24
18557 H 125.82039811607513 87.005232341555 153.34880551107898 H 0.0 **** 0.06
18558 H 126.41532100176184 88.65363385629851 153.65561755146575 H 0.0 **** 0.06
18559 H 127.55936885484613 87.29047301700038 153.59938087053555 H 0.0 **** 0.06
18560 H 126.42594309547192 87.44561516197737 154.96321057379097 H 0.0 **** 0.06
18561 C 165.1946477420417 53.25187043779593 112.07360985970686 C 0.0 **** -0.24
18562 H 165.373911373267 52.30439824382688 111.56348466235286 H 0.0 **** 0.06
18563 H 166.0517894057148 53.90978188534197 111.92902982900375 H 0.0 **** 0.06
18564 H 165.0505998506717 53.06913891753237 113.13832112161307 H 0.0 **** 0.06
18565 H 164.3011558147507 53.721726243844444 111.6610005936312 H 0.0 **** 0.06
18566 C 134.21619904921027 118.31541799548799 3.856556740567271 C 0.0 **** -0.24
18567 H 133.26184742886053 118.48465333216677 3.3581110935878655 H 0.0 **** 0.06
18568 H 135.01471553350765 118.30074325406301 3.115096864449754 H 0.0 **** 0.06
18569 H 134.18814066822145 117.35914076755586 4.379577092076488 H 0.0 **** 0.06
18570 H 134.39916660686657 119.11576538278837 4.573959436224868 H 0.0 **** 0.06
18571 C 35.30158857661348 177.88591044958284 193.30181552725256 C 0.0 **** -0.24
18572 H 35.3315262083878 177.11768743096096 192.5301531787355 H 0.0 **** 0.06
18573 H 36.167113487957295 177.7756607241954 193.95679976796472 H 0.0 **** 0.06
18574 H 34.387210978039775 177.77915401443505 193.8862771378175 H 0.0 **** 0.06
18575 H 35.32242339930269 178.87059470588778 192.8354524760247 H 0.0 **** 0.06
18576 C 37.989130918807916 4.632685222763996 150.71453893551566 C 0.0 **** -0.24
18577 H 38.235806504640436 3.579335861310909 150.84595031597289 H 0.0 **** 0.06
18578 H 38.812414532365835 5.138029934988538 150.208509766111 H 0.0 **** 0.06
18579 H 37.82391473509719 5.091280119591147 151.68889051017038 H 0.0 **** 0.06
18580 H 37.08418296699216 4.721288443152133 150.11298647068378 H 0.0 **** 0.06
18581 C 148.48965479877813 106.27735305874984 112.5271083093227 C 0.0 **** -0.24
18582 H 148.42123208512498 106.94438989164905 111.66779935637172 H 0.0 **** 0.06
18583 H 148.34438066266165 106.84919948827849 113.44366369257631 H 0.0 **** 0.06
18584 H 149.47354283309795 105.80726694309595 112.54390378459993 H 0.0 **** 0.06
18585 H 147.72106737543095 105.50795125963964 112.4516302792218 H 0.0 **** 0.06
18586 C 165.7716692088701 49.94263276807274 121.14211999727749 C 0.0 **** -0.24
18587 H 165.23956215360744 50.777646765265814 120.68681089379564 H 0.0 **** 0.06
18588 H 165.40750996863983 49.78934157647922 122.15807154348747 H 0.0 **** 0.06
18589 H 166.8393120504631 50.162994639457565 121.16816058694644 H 0.0 **** 0.06
18590 H 165.60170634578486 49.040524935833304 120.5554687044665 H 0.0 **** 0.06
18591 C 99.6037212565061 197.52909426758882 184.27561094356847 C 0.0 **** -0.24
18592 H 100.11378101402283 196.89112172883398 183.55326283886933 H 0.0 **** 0.06
18593 H 98.91434527148834 196.9283730307443 184.86821064947395 H 0.0 **** 0.06
18594 H 99.04937550801696 198.30437205015767 183.74624448852066 H 0.0 **** 0.06
18595 H 100.33990801255692 197.99305229775712 184.93319874929767 H 0.0 **** 0.06
18596 C 100.50239817846503 4.401805970962357 117.05906270661853 C 0.0 **** -0.24
18597 H 101.03161497287022 3.8311940659711183 116.29616342644513 H 0.0 **** 0.06
18598 H 100.99672317959062 5.362169636007671 117.20232500631857 H 0.0 **** 0.06
18599 H 100.50715443601229 3.8458286076008577 117.99646028837151 H 0.0 **** 0.06
18600 H 99.47326325567957 4.565444133185061 116.74003522244107 H 0.0 **** 0.06
18601 C 53.09369135027316 99.75112280623856 129.14476276467263 C 0.0 **** -0.24
18602 H 53.703155755014166 99.5682176976868 130.0296178589833 H 0.0 **** 0.06
18603 H 53.27192834134911 98.9633785422341 128.41269703358662 H 0.0 **** 0.06
18604 H 53.35978003933866 100.71540059162737 128.71369918607778 H 0.0 **** 0.06
18605 H 52.04017872361078 99.75542536644124 129.42519158880228 H 0.0 **** 0.06
18606 C 175.60953659557674 33.93059916671942 109.81613394483378 C 0.0 **** -0.24
18607 H 176.67566570821657 33.87193729750027 110.03380150914674 H 0.0 **** 0.06
18608 H 175.0422704155839 33.61705868030106 110.69417277682464 H 0.0 **** 0.06
18609 H 175.37346279936693 33.27556949653513 108.97799495975863 H 0.0 **** 0.06
18610 H 175.34662688903194 34.95661091343055 109.56130452124063 H 0.0 **** 0.06
18611 C 22.133909393323506 63.72604617855603 112.40386501905189 C 0.0 **** -0.24
18612 H 21.215859519375897 64.05308895393108 111.91487611199426 H 0.0 **** 0.06
18613 H 22.550996699417567 62.87773241483575 111.86045942771915 H 0.0 **** 0.06
18614 H 21.91397172394278 63.4297826811341 113.42885039190546 H 0.0 **** 0.06
18615 H 22.85395211438572 64.5449651464487 112.4087546069706 H 0.0 **** 0.06
18616 C 43.19157411168885 37.91666997325403 99.1567386684126 C 0.0 **** -0.24
18617 H 42.58055033715769 38.59556067887729 98.56176972646006 H 0.0 **** 0.06
18618 H 42.65575671981463 36.977743099852106 99.29873425776913 H 0.0 **** 0.06
18619 H 43.39836306020993 38.368663633092524 100.126251288785 H 0.0 **** 0.06
18620 H 44.13089175642574 37.72466947220427 98.63729100811295 H 0.0 **** 0.06
18621 C 11.992268671962165 42.145007837128134 136.91528273578444 C 0.0 **** -0.24
18622 H 11.384022044891708 42.85156796362344 136.34962512424025 H 0.0 **** 0.06
18623 H 11.350484579475733 41.5582062593636 137.57252833013857 H 0.0 **** 0.06
18624 H 12.723022582997828 42.69048418745098 137.51166259451014 H 0.0 **** 0.06
18625 H 12.5107432082998 41.4786201706097 136.2246639168697 H 0.0 **** 0.06
18626 C 98.11878943967369 94.46006521914825 79.3512055247501 C 0.0 **** -0.24
18627 H 98.9723523674665 94.23681476615462 79.99138772454037 H 0.0 **** 0.06
18628 H 98.25917538008713 93.98495967731841 78.38102968330048 H 0.0 **** 0.06
18629 H 98.03640267947068 95.5394925288378 79.2196919820494 H 0.0 **** 0.06
18630 H 97.2088848003622 94.08024746603107 79.81487640387348 H 0.0 **** 0.06
18631 C 131.34686545641387 131.58740100783638 8.057239770405715 C 0.0 **** -0.24
18632 H 132.17885158295184 131.32563446699905 7.4026833796407345 H 0.0 **** 0.06
18633 H 130.44436249974896 131.07752453540039 7.718285339943463 H 0.0 **** 0.06
18634 H 131.18863791024114 132.66457097670212 8.030527607196348 H 0.0 **** 0.06
18635 H 131.57745002595382 131.27886615862366 9.076710062457892 H 0.0 **** 0.06
18636 C 84.82604474912057 61.63343803665197 45.806306354263825 C 0.0 **** -0.24
18637 H 85.58731877334526 61.68910733765742 46.58423017111636 H 0.0 **** 0.06
18638 H 85.27289756574476 61.877572049111905 44.84238320712802 H 0.0 **** 0.06
18639 H 84.02822294571735 62.34291843335393 46.028289781308416 H 0.0 **** 0.06
18640 H 84.41465791594007 60.624501664991186 45.77224818118566 H 0.0 **** 0.06
18641 C 100.44296919890016 128.67302273062802 103.02404245983035 C 0.0 **** -0.24
18642 H 100.36631256794584 129.6209452047601 103.55611615214599 H 0.0 **** 0.06
18643 H 99.52599968990955 128.10054121487164 103.1688959973944 H 0.0 **** 0.06
18644 H 101.28992494457668 128.10608705249734 103.41018308021617 H 0.0 **** 0.06
18645 H 100.58724823793199 128.86408600591983 101.96066573174295 H 0.0 **** 0.06
18646 C 37.02058266126579 19.19586190220673 145.37731731416503 C 0.0 **** -0.24
18647 H 36.60973178690165 20.063347746531292 144.8599058998742 H 0.0 **** 0.06
18648 H 37.34215135393316 18.455416451473184 144.6445712441618 H 0.0 **** 0.06
18649 H 36.256289338485374 18.761778295136565 146.02174792796674 H 0.0 **** 0.06
18650 H 37.87312968036497 19.503965621453005 145.98136559792198 H 0.0 **** 0.06
18651 C 3.9631133854165626 188.49418654114533 4.629947547698492 C 0.0 **** -0.24
18652 H 4.337673001073284 187.53995497430623 5.0002135199458735 H 0.0 **** 0.06
18653 H 3.8410153762403354 189.18516486584662 5.464735986571725 H 0.0 **** 0.06
18654 H 3.001919472914892 188.341912518357 4.139978623868643 H 0.0 **** 0.06
18655 H 4.673210365003172 188.9100671887024 3.9147487907744107 H 0.0 **** 0.06
18656 C 100.49888332629695 119.77333844112911 47.59674260922989 C 0.0 **** -0.24
18657 H 101.00392802913771 118.92669620897414 48.06122883161888 H 0.0 **** 0.06
18658 H 99.45622224057735 119.51664893122765 47.409606196219755 H 0.0 **** 0.06
18659 H 100.9889021151148 120.01585383952133 46.653889733012875 H 0.0 **** 0.06
18660 H 100.54768794121475 120.63491004947016 48.263969852394155 H 0.0 **** 0.06
18661 C 105.49763162073032 74.71905330143244 6.237548628444209 C 0.0 **** -0.24
18662 H 105.56948692635683 75.3017838936986 5.318537431264154 H 0.0 **** 0.06
18663 H 106.40419333463797 74.12511687618269 6.362080181266684 H 0.0 **** 0.06
18664 H 104.63414544332912 74.05752962969245 6.181658579880612 H 0.0 **** 0.06
18665 H 105.3847223686094 75.39360916742197 7.086312770208735 H 0.0 **** 0.06
18666 C 26.6555020667073 37.012381197979224 1.8219243131566571 C 0.0 **** -0.24
18667 H 26.614408889589342 36.246221262219734 2.5968346364657506 H 0.0 **** 0.06
18668 H 26.57829526664618 36.54134886843427 0.8418001654305769 H 0.0 **** 0.06
18669 H 27.601447680071985 37.549292296405454 1.8938760662140055 H 0.0 **** 0.06
18670 H 25.829383521286886 37.71008496326921 1.9574281020456823 H 0.0 **** 0.06
18671 C 47.16360352667819 117.45311253063903 38.92168305582524 C 0.0 **** -0.24
18672 H 46.8536402509329 118.26748501658813 39.576740999958815 H 0.0 **** 0.06
18673 H 47.45335969035146 117.85834858107808 37.95183471405278 H 0.0 **** 0.06
18674 H 46.334905238900845 116.75659020143792 38.79249913552604 H 0.0 **** 0.06
18675 H 48.010646775719266 116.93155206629353 39.36610973738749 H 0.0 **** 0.06
18676 C 106.06272477410536 109.66275737175988 149.21566339676497 C 0.0 **** -0.24
18677 H 106.17398411792772 110.71727238288173 149.46802450965134 H 0.0 **** 0.06
18678 H 107.04757293385558 109.2065522770342 149.11745093672047 H 0.0 **** 0.06
18679 H 105.52351118356864 109.57106418901759 148.27253415947501 H 0.0 **** 0.06
18680 H 105.50388424638464 109.1583468735148 150.00405796829537 H 0.0 **** 0.06
18681 C 161.23510403868136 20.982955076229615 143.704663632272 C 0.0 **** -0.24
18682 H 162.1101672383578 21.631747369714873 143.65813778365407 H 0.0 **** 0.06
18683 H 161.2185003487918 20.46376781518643 144.66298225883827 H 0.0 **** 0.06
18684 H 161.28125076233147 20.254091711660124 142.89597126686942 H 0.0 **** 0.06
18685 H 160.33197112721095 21.5845598221224 143.60099415228 H 0.0 **** 0.06
18686 C 134.09386742744493 25.256154606800578 74.77279399045246 C 0.0 **** -0.24
18687 H 134.4857919872751 24.24625871745519 74.89221386705982 H 0.0 **** 0.06
18688 H 134.13991446160708 25.77832938896364 75.72921486050194 H 0.0 **** 0.06
18689 H 133.058880072723 25.20722340447071 74.43508615024088 H 0.0 **** 0.06
18690 H 134.692149485193 25.793414836760576 74.03666783618176 H 0.0 **** 0.06
18691 C 177.06334155746578 82.44263289833634 165.05341520238053 C 0.0 **** -0.24
18692 H 176.22751089448235 83.11184028143995 164.84988569922692 H 0.0 **** 0.06
18693 H 177.79634406927644 82.5230340798075 164.25056175686856 H 0.0 **** 0.06
18694 H 176.70053267594957 81.41677645175457 165.11287894635 H 0.0 **** 0.06
18695 H 177.52763493089537 82.71931014280025 166.0002330615836 H 0.0 **** 0.06
18696 C 62.0059555396159 22.195490974732024 111.4279300765337 C 0.0 **** -0.24
18697 H 61.79947540047961 21.169158815101213 111.12444048447745 H 0.0 **** 0.06
18698 H 61.781957831328626 22.869883727957358 110.6006682375561 H 0.0 **** 0.06
18699 H 63.0569116240395 22.290047490086693 111.69961194593321 H 0.0 **** 0.06
18700 H 61.38382945534177 22.452198226644413 112.28564752160537 H 0.0 **** 0.06
18701 C 198.6081826844616 73.9372476291292 91.10347918003137 C 0.0 **** -0.24
18702 H 198.75435345185159 73.06957985572747 91.74678425778805 H 0.0 **** 0.06
18703 H 198.1110139720092 74.72723531279499 91.66761874059765 H 0.0 **** 0.06
18704 H 197.99141118451848 73.6569298687465 90.24996612287697 H 0.0 **** 0.06
18705 H 199.5754328198768 74.29596081889875 90.75183205425392 H 0.0 **** 0.06
18706 C 139.33716028733534 89.5561075699531 191.1803272769733 C 0.0 **** -0.24
18707 H 139.0827920324749 88.6544300815163 190.6235363177191 H 0.0 **** 0.06
18708 H 139.64761043035895 90.3365999751042 190.48572811582872 H 0.0 **** 0.06
18709 H 140.15191937732897 89.337726305263 191.87063150668178 H 0.0 **** 0.06
18710 H 138.46545658248903 89.89387386273219 191.74128830608166 H 0.0 **** 0.06
18711 C 95.44039611001165 190.46505156225157 120.96285617381298 C 0.0 **** -0.24
18712 H 94.36522884119961 190.28182473158176 120.9449120011104 H 0.0 **** 0.06
18713 H 95.95124375812924 189.58846449726798 121.36277179766509 H 0.0 **** 0.06
18714 H 95.65088268197024 191.32838764617046 121.592974306634 H 0.0 **** 0.06
18715 H 95.79155332597131 190.659674432045 119.94958364066753 H 0.0 **** 0.06
18716 C 177.58113064544273 136.0863524072925 85.24061012613618 C 0.0 **** -0.24
18717 H 177.08599843300206 136.97812110205214 84.854360981323 H 0.0 **** 0.06
18718 H 178.57376542287176 136.00134888233487 84.79647352714545 H 0.0 **** 0.06
18719 H 176.9917730993608 135.20547702479146 84.98754904875511 H 0.0 **** 0.06
18720 H 177.67258189657295 136.16416846291548 86.32437948875383 H 0.0 **** 0.06
18721 C 138.46735564020415 113.34714130084092 191.86027143713318 C 0.0 **** -0.24
18722 H 138.39650107352085 112.42416789963497 192.43510915064493 H 0.0 **** 0.06
18723 H 139.3730827102448 113.88361101341187 192.14559132023217 H 0.0 **** 0.06
18724 H 137.59636775778256 113.96962262507253 192.0644154671137 H 0.0 **** 0.06
18725 H 138.50513818710385 113.11062744780938 190.7973601811232 H 0.0 **** 0.06
18726 C 15.857501580078264 137.27667597942536 57.73399289145772 C 0.0 **** -0.24
18727 H 15.528770316930604 138.30666211512954 57.87270122145185 H 0.0 **** 0.06
18728 H 16.81274303017203 137.2680162282748 57.2084555692 H 0.0 **** 0.06
18729 H 15.116077101543866 136.73426941032412 57.148651533800376 H 0.0 **** 0.06
18730 H 15.974286191972027 136.79865328690892 58.7069982147176 H 0.0 **** 0.06
18731 C 57.806171274331376 134.0449839822374 22.147081848432308 C 0.0 **** -0.24
18732 H 57.18619418873138 134.02996648990475 21.25047793415638 H 0.0 **** 0.06
18733 H 58.81793134636936 134.35215297619135 21.883378537502892 H 0.0 **** 0.06
18734 H 57.83158894845175 133.04837850304705 22.587762165984856 H 0.0 **** 0.06
18735 H 57.38818715407557 134.74971997134298 22.866154967305746 H 0.0 **** 0.06
18736 C 99.43246367891967 27.19060725681004 124.70097163831088 C 0.0 **** -0.24
18737 H 98.84375507496893 27.18591741526221 123.7838375917232 H 0.0 **** 0.06
18738 H 99.83911136024832 26.195183712400407 124.87661984012524 H 0.0 **** 0.06
18739 H 98.79789037383213 27.47755473985694 125.53881381974367 H 0.0 **** 0.06
18740 H 100.24968450424674 27.90536101110696 124.60284477604861 H 0.0 **** 0.06
18741 C 39.86201787865002 189.54884089033558 49.82177499713357 C 0.0 **** -0.24
18742 H 40.71885028900749 189.99141210439836 49.31336509141805 H 0.0 **** 0.06
18743 H 40.20527246788231 188.989717132069 50.69242509924055 H 0.0 **** 0.06
18744 H 39.342493001860134 188.8769193470048 49.139006359476866 H 0.0 **** 0.06
18745 H 39.18226602639413 190.33842670580592 50.141975466028526 H 0.0 **** 0.06
18746 C 156.65323118121387 127.7076441726798 32.13542570832895 C 0.0 **** -0.24
18747 H 156.82899573446173 128.1275694798569 33.12553692866048 H 0.0 **** 0.06
18748 H 155.6069224906543 127.4163025012154 32.0452047022722 H 0.0 **** 0.06
18749 H 157.28862043143263 126.83274724978278 31.994274800966437 H 0.0 **** 0.06
18750 H 156.88923729848108 128.45377856712847 31.376193019013186 H 0.0 **** 0.06
18751 C 169.76051372886224 66.4820039888965 153.83598356067696 C 0.0 **** -0.24
18752 H 170.59353290170014 67.16366638289368 153.66762948368515 H 0.0 **** 0.06
18753 H 168.84279170731224 67.05546054053794 153.96667999467394 H 0.0 **** 0.06
18754 H 169.95112929202799 65.89038643392797 154.73091598250446 H 0.0 **** 0.06
18755 H 169.65487007410786 65.81890749862656 152.97704633563635 H 0.0 **** 0.06
18756 C 158.99586439553025 71.23590473162255 198.11019225698203 C 0.0 **** -0.24
18757 H 158.12173279679982 71.19550586866484 197.45975119305376 H 0.0 **** 0.06
18758 H 159.74836046828813 71.88905873663177 197.6667689621001 H 0.0 **** 0.06
18759 H 159.40804582346777 70.23282743884187 198.22618418762548 H 0.0 **** 0.06
18760 H 158.70594092641912 71.62542831623537 199.08524066955903 H 0.0 **** 0.06
18761 C 4.23490500090945 103.02878378441306 128.7800332798305 C 0.0 **** -0.24
18762 H 3.4156712601572394 102.74197648817074 128.12167600007018 H 0.0 **** 0.06
18763 H 4.484854025417349 104.07721105252779 128.6133825672041 H 0.0 **** 0.06
18764 H 5.106378378474076 102.40916329066715 128.56792178931119 H 0.0 **** 0.06
18765 H 3.9329358894662434 102.88777634553026 129.81813647978106 H 0.0 **** 0.06
18766 C 169.2269903186475 72.97221741750565 111.93577940200504 C 0.0 **** -0.24
18767 H 168.95713702041647 72.97382664920895 112.99239490215734 H 0.0 **** 0.06
18768 H 169.25653184741068 71.94493438224146 111.5708580778012 H 0.0 **** 0.06
18769 H 170.20692404042472 73.43186374591795 111.8106961643962 H 0.0 **** 0.06
18770 H 168.48487806643755 73.5374027865036 111.37163616394199 H 0.0 **** 0.06
18771 C 78.27563939013135 157.1189696547594 151.039494849549 C 0.0 **** -0.24
18772 H 78.97429354819934 156.5058717993023 151.60750720669938 H 0.0 **** 0.06
18773 H 77.91465407485441 156.55503175201318 150.1782234811324 H 0.0 **** 0.06
18774 H 78.78051525907705 158.0222909034396 150.69668036963043 H 0.0 **** 0.06
18775 H 77.43305551802592 157.39220017816862 151.67390572569786 H 0.0 **** 0.06
18776 C 123.7713231575591 101.14208588162535 127.52532496957903 C 0.0 **** -0.24
18777 H 122.83533471422527 101.06312154731677 126.9737346171562 H 0.0 **** 0.06
18778 H 124.12473839769041 100.14382599534719 127.78563934357913 H 0.0 **** 0.06
18779 H 123.60910860757417 101.71883322106885 128.43569446619549 H 0.0 **** 0.06
18780 H 124.51728003718426 101.64156507728705 126.90703009517466 H 0.0 **** 0.06
18781 C 178.82487843793845 34.630994817330276 25.807400316966834 C 0.0 **** -0.24
18782 H 178.8329360974276 33.54908010015782 25.677264660578857 H 0.0 **** 0.06
18783 H 179.05939533272405 35.11221671195432 24.85703931590649 H 0.0 **** 0.06
18784 H 179.57102702517318 34.912477177481804 26.551107698912574 H 0.0 **** 0.06
18785 H 177.83875415657312 34.950480467045566 26.143107755686543 H 0.0 **** 0.06
18786 C 7.442416171284634 109.96456235441696 153.52427408977533 C 0.0 **** -0.24
18787 H 7.172001662594425 109.9415743755913 152.4679255396257 H 0.0 **** 0.06
18788 H 7.4236035661864435 110.9943505514974 153.88163531670173 H 0.0 **** 0.06
18789 H 8.444038136841641 109.55324368447873 153.65164003532757 H 0.0 **** 0.06
18790 H 6.730170755808189 109.36767924047308 154.09389211718047 H 0.0 **** 0.06
18791 C 185.47863800974287 31.833823097989878 157.14038058654617 C 0.0 **** -0.24
18792 H 185.62384074895567 32.84480665806079 156.7594408378804 H 0.0 **** 0.06
18793 H 186.02205777053365 31.71786807735907 158.07794608939656 H 0.0 **** 0.06
18794 H 185.8515055801351 31.113716452103944 156.4117902470064 H 0.0 **** 0.06
18795 H 184.41607369975492 31.66085733971856 157.31220498582047 H 0.0 **** 0.06
18796 C 181.7260970955914 158.8884843190017 134.92260681954258 C 0.0 **** -0.24
18797 H 181.85478862159823 159.92109233832883 135.246200453646 H 0.0 **** 0.06
18798 H 181.8034935326161 158.83647460083813 133.83616653884383 H 0.0 **** 0.06
18799 H 180.74592184509075 158.5287088990589 135.235649643253 H 0.0 **** 0.06
18800 H 182.5015148597138 158.26812055465797 135.37254879741897 H 0.0 **** 0.06
18801 C 75.06123899867032 68.19192459038928 67.04078158404916 C 0.0 **** -0.24
18802 H 75.29777790391813 67.16871631548253 66.74979216237263 H 0.0 **** 0.06
18803 H 75.71250764547437 68.88281616561977 66.5043324361132 H 0.0 **** 0.06
18804 H 75.21255935155409 68.3084962099862 68.11406341913575 H 0.0 **** 0.06
18805 H 74.02122414150608 68.40805301626673 66.79519596825926 H 0.0 **** 0.06
18806 C 183.7467614433131 105.67949800064406 177.030173120093 C 0.0 **** -0.24
18807 H 183.55899630863797 105.58521727934493 178.10000072046745 H 0.0 **** 0.06
18808 H 184.7982875969002 105.91861276439406 176.86656201439305 H 0.0 **** 0.06
18809 H 183.12496033220225 106.4761368034261 176.62084599669936 H 0.0 **** 0.06
18810 H 183.5061587416568 104.73991549872886 176.53404842084728 H 0.0 **** 0.06
18811 C 102.76246614767638 138.2909344816743 72.15949112841572 C 0.0 **** -0.24
18812 H 102.85067466614223 138.71012391290787 71.15781995822812 H 0.0 **** 0.06
18813 H 102.48395748175884 139.078518839416 72.86028675023269 H 0.0 **** 0.06
18814 H 103.71761051171407 137.85836874033322 72.45775411889561 H 0.0 **** 0.06
18815 H 101.99653612914165 137.5142187139524 72.16137392811079 H 0.0 **** 0.06
18816 C 1.958629341769523 195.5846793074324 192.2467879199096 C 0.0 **** -0.24
18817 H 0.9367241822846779 195.940604609485 192.12057111911366 H 0.0 **** 0.06
18818 H 2.450111556608249 196.16147792882404 193.0308085084759 H 0.0 **** 0.06
18819 H 2.5033751233526402 195.7057482070541 191.31104489217864 H 0.0 **** 0.06
18820 H 1.9443065048325252 194.5308864843665 192.52472715987028 H 0.0 **** 0.06
18821 C 84.20648138607851 172.9576700877109 72.47008717233007 C 0.0 **** -0.24
18822 H 84.83350578506983 172.62194567533982 73.29726142680255 H 0.0 **** 0.06
18823 H 83.15696245083066 172.86345322848416 72.74997444129838 H 0.0 **** 0.06
18824 H 84.40615987792381 172.34427654406423 71.59155399742133 H 0.0 **** 0.06
18825 H 84.43119916647461 174.00073072510204 72.2452069184011 H 0.0 **** 0.06
18826 C 172.71027050443337 186.30045133135945 155.45745707177596 C 0.0 **** -0.24
18827 H 173.21753263799388 186.7439461657322 156.3139313154941 H 0.0 **** 0.06
18828 H 171.97868848806792 185.5710541531929 155.80644734690105 H 0.0 **** 0.06
18829 H 173.4418301727244 185.80468842081865 154.81869789224504 H 0.0 **** 0.06
18830 H 172.20330184501506 187.08120705324666 154.8910667927737 H 0.0 **** 0.06
18831 C 103.71207818658866 83.15020335283805 49.69706227583845 C 0.0 **** -0.24
18832 H 104.0336658218389 82.3124262291964 49.07792612162336 H 0.0 **** 0.06
18833 H 103.70979037528286 84.0628435032551 49.10091681664164 H 0.0 **** 0.06
18834 H 104.39676884908351 83.26567155875699 50.53700838276262 H 0.0 **** 0.06
18835 H 102.70562828336597 82.95850685795978 50.072101976327076 H 0.0 **** 0.06
18836 C 28.569685939849577 59.54837075096191 171.03766474146826 C 0.0 **** -0.24
18837 H 27.712084182302178 59.102546276132415 170.5340781652432 H 0.0 **** 0.06
18838 H 29.483154092154464 59.269202097142454 170.51222351045197 H 0.0 **** 0.06
18839 H 28.61558051895311 59.18566110115114 172.06522014671074 H 0.0 **** 0.06
18840 H 28.467462292996174 60.633125391816804 171.03882955134034 H 0.0 **** 0.06
18841 C 173.2069433229402 186.60502800538586 101.55098283665504 C 0.0 **** -0.24
18842 H 174.03234242343115 187.28900592677954 101.75142044752343 H 0.0 **** 0.06
18843 H 172.71218060424096 186.89485957455503 100.62376538364558 H 0.0 **** 0.06
18844 H 172.49310981029737 186.64851461292403 102.37385301081665 H 0.0 **** 0.06
18845 H 173.5918344816564 185.58996424024036 101.45737187185284 H 0.0 **** 0.06
18846 C 35.84575466247813 10.572953405775593 89.57365645120512 C 0.0 **** -0.24
18847 H 34.88791043610411 10.102762271652693 89.79525385184007 H 0.0 **** 0.06
18848 H 35.93856236472959 11.495760250700243 90.14701319656967 H 0.0 **** 0.06
18849 H 35.89990163279714 10.799951265959578 88.50887959113777 H 0.0 **** 0.06
18850 H 36.65423656772401 9.89458402665008 89.8421925380585 H 0.0 **** 0.06
18851 C 118.26671787244709 86.92526123127783 77.44869995645432 C 0.0 **** -0.24
18852 H 118.75583777879228 87.64402833031124 76.79226166672471 H 0.0 **** 0.06
18853 H 118.95434464899711 86.10835445635303 77.66973488470605 H 0.0 **** 0.06
18854 H 117.37891022314352 86.5297613307747 76.95575160371816 H 0.0 **** 0.06
18855 H 117.9771910570662 87.41906578866877 78.37625963818462 H 0.0 **** 0.06
18856 C 48.480850465150525 188.1183269129218 146.43014864879683 C 0.0 **** -0.24
18857 H 49.09871527767967 188.14638128064686 145.53162388737647 H 0.0 **** 0.06
18858 H 48.17375070162893 187.09019993989287 146.6268499119939 H 0.0 **** 0.06
18859 H 47.59803348017823 188.7404380726771 146.28342252884337 H 0.0 **** 0.06
18860 H 49.05488568564692 188.4950387404025 147.2761477186892 H 0.0 **** 0.06
18861 C 128.5403585682319 15.375527015680746 198.4277142460075 C 0.0 **** -0.24
18862 H 129.53933494259059 15.748484005084833 198.19743829727187 H 0.0 **** 0.06
18863 H 128.42766388713983 14.369751927922607 198.0231403206996 H 0.0 **** 0.06
18864 H 127.7955324942896 16.033908182630853 197.97977668593646 H 0.0 **** 0.06
18865 H 128.40163804607198 15.352157796297575 199.5083322017013 H 0.0 **** 0.06
18866 C 2.5964094177682853 188.4996208660586 106.63159323677405 C 0.0 **** -0.24
18867 H 2.514981708044985 189.23210879117232 107.43425981495551 H 0.0 **** 0.06
18868 H 1.899237318606879 188.7558430697304 105.83303205761715 H 0.0 **** 0.06
18869 H 2.3582157083357345 187.50867632752644 107.01796010670125 H 0.0 **** 0.06
18870 H 3.6141473838173965 188.50204500345095 106.24008556203921 H 0.0 **** 0.06
18871 C 175.6752677809563 192.091602598088 185.8189103281444 C 0.0 **** -0.24
18872 H 174.9716516074059 192.4264916542968 186.58116703433444 H 0.0 **** 0.06
18873 H 175.5193886414678 191.03031198065202 185.62236102963897 H 0.0 **** 0.06
18874 H 176.6944530249771 192.25046090272878 186.17117323978624 H 0.0 **** 0.06
18875 H 175.51470486688027 192.65887714849057 184.90241166175082 H 0.0 **** 0.06
18876 C 107.68669180385825 160.54494313928177 21.845018625280005 C 0.0 **** -0.24
18877 H 106.91290841901031 161.28952352967175 22.03456814078487 H 0.0 **** 0.06
18878 H 108.61724390579025 161.04868546358026 21.583675678038986 H 0.0 **** 0.06
18879 H 107.37703082284935 159.90156319152592 21.021059878925342 H 0.0 **** 0.06
18880 H 107.83686675356489 159.94232962898872 22.740333713031305 H 0.0 **** 0.06
18881 C 40.92183671454427 177.68999318129676 119.2171554030011 C 0.0 **** -0.24
18882 H 40.53656123125768 176.67745924904335 119.33954630139738 H 0.0 **** 0.06
18883 H 40.81874903160178 177.99422228398188 118.17571012920808 H 0.0 **** 0.06
18884 H 41.9732085892698 177.7160385939564 119.50177704229114 H 0.0 **** 0.06
18885 H 40.35690264860489 178.3720255877638 119.85270239808082 H 0.0 **** 0.06
18886 C 82.95923892285487 55.23188882906976 198.23690266260596 C 0.0 **** -0.24
18887 H 82.94829567447823 56.256280787262995 197.8648004716208 H 0.0 **** 0.06
18888 H 82.130055178591 54.67731048293882 197.79594020400327 H 0.0 **** 0.06
18889 H 82.85503750152515 55.238505148702615 199.32195287956696 H 0.0 **** 0.06
18890 H 83.90062992689195 54.75596902434535 197.96458304746878 H 0.0 **** 0.06
18891 C 163.0405210637849 162.13360208297934 86.15937408279365 C 0.0 **** -0.24
18892 H 163.33587280307484 162.0621630376755 87.20613408105112 H 0.0 **** 0.06
18893 H 163.64220396519852 161.44476601788716 85.56576961784901 H 0.0 **** 0.06
18894 H 163.19880724409643 163.15178055459864 85.80591582991309 H 0.0 **** 0.06
18895 H 161.98704290107767 161.87322004902185 86.06035577806381 H 0.0 **** 0.06
18896 C 140.67064119605055 150.4912220425599 95.31337208463151 C 0.0 **** -0.24
18897 H 139.8064242627575 150.5985074884478 94.65711784415112 H 0.0 **** 0.06
18898 H 141.44563859352164 149.9201492258557 94.80189328766244 H 0.0 **** 0.06
18899 H 140.3740224382603 149.96824224317106 96.22184833449671 H 0.0 **** 0.06
18900 H 141.05651746670983 151.4776578022271 95.57092922823841 H 0.0 **** 0.06
18901 C 161.7239645337279 182.3201576407169 56.75194280454048 C 0.0 **** -0.24
18902 H 162.40873369483333 181.49163858229704 56.571216364093885 H 0.0 **** 0.06
18903 H 160.91988075291155 181.98929381017538 57.409482223434864 H 0.0 **** 0.06
18904 H 161.30473464250275 182.657864355807 55.80384356502843 H 0.0 **** 0.06
18905 H 162.26420722757632 183.14185841728255 57.22356911612158 H 0.0 **** 0.06
18906 C 121.49946958217637 116.47675043446242 36.408072612662636 C 0.0 **** -0.24
18907 H 121.49121632973001 117.5503908360788 36.216062489463866 H 0.0 **** 0.06
18908 H 122.4721941517279 116.18698012581103 36.80569902766135 H 0.0 **** 0.06
18909 H 121.31182318868014 115.94013732679389 35.478542157896314 H 0.0 **** 0.06
18910 H 120.72283700913493 116.23281910343655 37.13336637917676 H 0.0 **** 0.06
18911 C 99.21293157145561 19.51202315622723 124.4419809301848 C 0.0 **** -0.24
18912 H 99.68128457347174 18.765425505935184 125.08503702693835 H 0.0 **** 0.06
18913 H 98.55752509870044 19.015340462558385 123.72663881856005 H 0.0 **** 0.06
18914 H 99.9844694608081 20.06452487734026 123.90620317341322 H 0.0 **** 0.06
18915 H 98.6290202940134 20.201075828361354 125.05221098349594 H 0.0 **** 0.06
18916 C 26.082369370315917 61.84422430343044 11.422749513327659 C 0.0 **** -0.24
18917 H 25.099525666186437 62.239225685582625 11.164064644255888 H 0.0 **** 0.06
18918 H 26.27857414894278 62.02320869764547 12.479954770710435 H 0.0 **** 0.06
18919 H 26.84375949665278 62.3420999747449 10.822345838057231 H 0.0 **** 0.06
18920 H 26.106246007322554 60.77268983001781 11.224531301176711 H 0.0 **** 0.06
18921 C 43.16044102651118 175.9041228364133 56.53592384282912 C 0.0 **** -0.24
18922 H 42.089256901081825 176.06255231094164 56.66134854900308 H 0.0 **** 0.06
18923 H 43.699648093145356 176.78974041266068 56.87134882523446 H 0.0 **** 0.06
18924 H 43.37846778818522 175.72080933086818 55.484301215903784 H 0.0 **** 0.06
18925 H 43.47151053638525 175.0427858208376 57.12727736960855 H 0.0 **** 0.06
18926 C 42.85681976129949 63.182298714169974 86.50192604190761 C 0.0 **** -0.24
18927 H 43.90480634886205 62.88801376716728 86.5543870218786 H 0.0 **** 0.06
18928 H 42.78919028747276 64.26072943946987 86.35911811248405 H 0.0 **** 0.06
18929 H 42.35474182728592 62.90581403603183 87.42913133533028 H 0.0 **** 0.06
18930 H 42.378314916745026 62.67410638551735 85.66425106259197 H 0.0 **** 0.06
18931 C 193.41077046622192 182.75738764649188 146.2582011435338 C 0.0 **** -0.24
18932 H 193.23563664956592 183.1053309176654 145.2396205952724 H 0.0 **** 0.06
18933 H 194.32773255245988 182.16901692909718 146.2876478506157 H 0.0 **** 0.06
18934 H 192.5717629171616 182.1400972289398 146.57962696629124 H 0.0 **** 0.06
18935 H 193.50678392614574 183.61461304630933 146.92381190810403 H 0.0 **** 0.06
18936 C 162.27865710030176 181.74548319712957 121.22598922417836 C 0.0 **** -0.24
18937 H 161.27258282495524 182.1594165636483 121.15078665615272 H 0.0 **** 0.06
18938 H 163.00796773253606 182.52357532089601 120.9993235146614 H 0.0 **** 0.06
18939 H 162.38705803961378 180.92605842170568 120.5151608592547 H 0.0 **** 0.06
18940 H 162.44445256273335 181.37422528687694 122.236539607444 H 0.0 **** 0.06
18941 C 75.77528611741312 198.23842418869373 147.86463176812492 C 0.0 **** -0.24
18942 H 75.90759398942858 198.49017687009356 146.81208965005573 H 0.0 **** 0.06
18943 H 76.68809899194284 198.4743486056388 148.4116573693563 H 0.0 **** 0.06
18944 H 75.56076505212489 197.17389656608987 147.95859098708647 H 0.0 **** 0.06
18945 H 74.94616600743056 198.8141797241277 148.27343006145216 H 0.0 **** 0.06
18946 C 185.07318808255064 74.34527380492364 66.29777144196213 C 0.0 **** -0.24
18947 H 185.49710543451528 74.64424508143622 67.25602554208189 H 0.0 **** 0.06
18948 H 184.56824689408205 75.19763367879199 65.84190660482246 H 0.0 **** 0.06
18949 H 184.35703501863213 73.5385187985201 66.45309634552541 H 0.0 **** 0.06
18950 H 185.87106268506255 74.00005825298632 65.6397341796554 H 0.0 **** 0.06
18951 C 171.22550977286588 63.47593841630663 146.63592138914507 C 0.0 **** -0.24
18952 H 170.8502714352171 63.952733609236816 145.73088205435502 H 0.0 **** 0.06
18953 H 171.76967677048108 62.57011880991291 146.37035260105043 H 0.0 **** 0.06
18954 H 170.3877338362413 63.21971131234767 147.28455212892004 H 0.0 **** 0.06
18955 H 171.89292638320512 64.16212255256903 147.15818770275428 H 0.0 **** 0.06
18956 C 155.32539860535266 70.47194483230628 123.14060471249616 C 0.0 **** -0.24
18957 H 155.1214258274247 69.83821356494605 122.27708025650213 H 0.0 **** 0.06
18958 H 154.47460830403088 71.1304251526827 123.31653145697874 H 0.0 **** 0.06
18959 H 156.21500903674212 71.07110112773968 122.9484493602339 H 0.0 **** 0.06
18960 H 155.4903078854304 69.84760495016069 124.01795942636011 H 0.0 **** 0.06
18961 C 194.31898040786155 67.10911306897434 158.63307262997492 C 0.0 **** -0.24
18962 H 194.5907615169065 66.55011156436258 159.52928915530535 H 0.0 **** 0.06
18963 H 194.18624006683893 68.16114130902126 158.88781032190192 H 0.0 **** 0.06
18964 H 193.39000804934005 66.71190843008486 158.22578221415552 H 0.0 **** 0.06
18965 H 195.11221820504832 67.01236924623534 157.89089870128265 H 0.0 **** 0.06
18966 C 57.96579313990472 167.0836471461273 180.27032261201418 C 0.0 **** -0.24
18967 H 57.894028007052896 166.45447880442967 181.15716455545692 H 0.0 **** 0.06
18968 H 57.892081382492336 166.4613342206365 179.37761330037276 H 0.0 **** 0.06
18969 H 58.922245628640354 167.60604914809906 180.27153046626069 H 0.0 **** 0.06
18970 H 57.15343717844695 167.8112589174715 180.27401198791205 H 0.0 **** 0.06
18971 C 88.68517529421374 18.331364279771933 93.50388144771657 C 0.0 **** -0.24
18972 H 89.661977457077 18.106347166271235 93.0744940489574 H 0.0 **** 0.06
18973 H 87.91008626999704 18.144671250301286 92.7597702826906 H 0.0 **** 0.06
18974 H 88.65411067420857 19.37715631028665 93.80783650616084 H 0.0 **** 0.06
18975 H 88.51627021244244 17.694650374873206 94.37168334646094 H 0.0 **** 0.06
18976 C 76.70946165373866 144.21079473547906 191.78712950546316 C 0.0 **** -0.24
18977 H 77.174918875635 143.95573633861568 192.73855235853716 H 0.0 **** 0.06
18978 H 77.3463300240838 143.87107867084282 190.96927658757454 H 0.0 **** 0.06
18979 H 76.58060639118898 145.2918924582199 191.72310023698344 H 0.0 **** 0.06
18980 H 75.73688401780727 143.7241913126778 191.7165283433147 H 0.0 **** 0.06
18981 C 98.37819856795232 77.31635894827456 65.92891926228504 C 0.0 **** -0.24
18982 H 98.20536301269101 78.3926371470381 65.91089699309845 H 0.0 **** 0.06
18983 H 97.44097230217278 76.79466745900993 65.73712358289004 H 0.0 **** 0.06
18984 H 98.76275195304419 77.02660040270906 66.90611337421126 H 0.0 **** 0.06
18985 H 99.10543882721936 77.05254072078888 65.16013563808252 H 0.0 **** 0.06
18986 C 181.09037127341944 62.97929360867407 189.30476060630576 C 0.0 **** -0.24
18987 H 180.56345618840223 63.87215050275462 188.97032569267074 H 0.0 **** 0.06
18988 H 181.52144266953457 62.468546894480866 188.4441201980869 H 0.0 **** 0.06
18989 H 180.39103539669998 62.3131308583507 189.81012998306284 H 0.0 **** 0.06
18990 H 181.88427102238626 63.26340004824655 189.99506589327495 H 0.0 **** 0.06
18991 C 130.93724940219255 98.86943100993437 165.61761964410556 C 0.0 **** -0.24
18992 H 129.95258000419142 98.90005301545239 166.083352547149 H 0.0 **** 0.06
18993 H 131.43048253395455 97.93152203888496 165.87187839268427 H 0.0 **** 0.06
18994 H 131.5371543262371 99.70537945300055 165.97933776082644 H 0.0 **** 0.06
18995 H 130.8284804700179 98.94184269591346 164.53503912975518 H 0.0 **** 0.06
18996 C 156.63313259993754 40.304158237936065 152.57478733828407 C 0.0 **** -0.24
18997 H 155.77487733748075 40.97595728272174 152.56184014459842 H 0.0 **** 0.06
18998 H 157.53565555387138 40.871363445198426 152.80529391286183 H 0.0 **** 0.06
18999 H 156.740022193969 39.8319180560606 151.59832151515343 H 0.0 **** 0.06
19000 H 156.48237888499358 39.53641391087149 153.33462987371152 H 0.0 **** 0.06
19001 C 110.64321601935083 48.209953138187814 108.06752416577638 C 0.0 **** -0.24
19002 H 109.8031002790247 48.83336821801137 108.37544930024626 H 0.0 **** 0.06
19003 H 110.35510440089843 47.160044374149365 108.12076856371482 H 0.0 **** 0.06
19004 H 111.490008996776 48.389081119839645 108.73024847288696 H 0.0 **** 0.06
19005 H 110.92342718334106 48.459407931009736 107.04400391811089 H 0.0 **** 0.06
19006 C 134.0426798061289 105.06001761038809 105.35183499617585 C 0.0 **** -0.24
19007 H 133.46213478931585 104.38638580330621 104.72208636457512 H 0.0 **** 0.06
19008 H 135.1002817537631 104.80365106650848 105.27954372784004 H 0.0 **** 0.06
19009 H 133.71457375512477 104.96304392160519 106.38665971629388 H 0.0 **** 0.06
19010 H 133.8941094088911 106.08725646556323 105.01816470202564 H 0.0 **** 0.06
19011 C 157.52209089543155 14.18257942297322 100.06754587582591 C 0.0 **** -0.24
19012 H 158.35585235374984 13.739405967603275 100.61223735235276 H 0.0 **** 0.06
19013 H 157.69263592277645 14.078848652261456 98.9955020216525 H 0.0 **** 0.06
19014 H 157.44290812082323 15.240379513680878 100.3223394834531 H 0.0 **** 0.06
19015 H 156.59872255591657 13.673364389660705 100.33979869396529 H 0.0 **** 0.06
19016 C 87.36399549301882 38.13999258827775 158.90898806550996 C 0.0 **** -0.24
19017 H 86.81066975930153 39.0553197475345 159.1189083011906 H 0.0 **** 0.06
19018 H 86.68576644138676 37.392194109252216 158.49720840982494 H 0.0 **** 0.06
19019 H 87.80607697782682 37.76294480371092 159.8312649292001 H 0.0 **** 0.06
19020 H 88.15448632139763 38.35101596913239 158.18773284158956 H 0.0 **** 0.06
19021 C 68.98823368507405 42.22005892940422 152.25991836548192 C 0.0 **** -0.24
19022 H 70.07005378071364 42.31233655618988 152.16213386113952 H 0.0 **** 0.06
19023 H 68.75498206363304 41.47317259346731 153.01863119656358 H 0.0 **** 0.06
19024 H 68.56270648170744 41.9137717623737 151.30477940553234 H 0.0 **** 0.06
19025 H 68.56711095290484 43.1814149148761 152.55380098145625 H 0.0 **** 0.06
19026 C 144.643006090942 158.77524753356275 86.96038864997848 C 0.0 **** -0.24
19027 H 144.62885616440903 158.26892854137645 85.9949444249055 H 0.0 **** 0.06
19028 H 143.72260519678525 158.55278657916162 87.49956671300941 H 0.0 **** 0.06
19029 H 144.72240824647542 159.8511936178493 86.80479300316762 H 0.0 **** 0.06
19030 H 145.4983589534263 158.42780116982237 87.53982560697682 H 0.0 **** 0.06
19031 C 135.25271893240063 49.73585086922702 198.40638932855313 C 0.0 **** -0.24
19032 H 134.67277803919654 50.08870277558937 197.55422458419775 H 0.0 **** 0.06
19033 H 134.60152267191074 49.18163309020987 199.08337588442396 H 0.0 **** 0.06
19034 H 135.68122336787116 50.589385316107524 198.9315384265609 H 0.0 **** 0.06
19035 H 136.05318187350952 49.08421145877067 198.05630814182575 H 0.0 **** 0.06
19036 C 100.36944563102776 180.20237471762496 46.561186412526524 C 0.0 **** -0.24
19037 H 101.45392910528406 180.23360576742624 46.459461866095836 H 0.0 **** 0.06
19038 H 100.10056643279373 180.2858090147918 47.61493657766718 H 0.0 **** 0.06
19039 H 99.99372594853969 179.25915819220512 46.16335854768289 H 0.0 **** 0.06
19040 H 99.92820315117561 181.03129637528457 46.00712625639696 H 0.0 **** 0.06
19041 C 169.6154517942869 80.66861377242509 107.50286567491997 C 0.0 **** -0.24
19042 H 170.44230538008946 80.12124871082321 107.95393251057916 H 0.0 **** 0.06
19043 H 169.32651032648653 80.1846251086825 106.56960767368525 H 0.0 **** 0.06
19044 H 169.92681740805358 81.69349366400851 107.2991223053437 H 0.0 **** 0.06
19045 H 168.76742081132187 80.67514792635191 108.1869449238454 H 0.0 **** 0.06
19046 C 166.60924417193684 137.76947384539682 37.18178369643141 C 0.0 **** -0.24
19047 H 167.16375957946119 137.79636918460787 36.24420705012986 H 0.0 **** 0.06
19048 H 165.94314449307015 138.63027530537843 37.234544786065186 H 0.0 **** 0.06
19049 H 167.30881102122189 137.79892090469357 38.018036534006626 H 0.0 **** 0.06
19050 H 166.0234333531341 136.85217358778783 37.231468525702525 H 0.0 **** 0.06
19051 C 77.81545804532124 187.6088014165776 163.93431646761846 C 0.0 **** -0.24
19052 H 78.18798465440729 188.5964541682852 163.66227666745428 H 0.0 **** 0.06
19053 H 78.63267991585761 187.0132570442348 164.3416185718175 H 0.0 **** 0.06
19054 H 77.41201422920706 187.11640884032548 163.04964120778817 H 0.0 **** 0.06
19055 H 77.03101266789045 187.7100408482359 164.68452358328318 H 0.0 **** 0.06
19056 C 145.29988553783312 143.60615871217507 162.11225725248585 C 0.0 **** -0.24
19057 H 145.8157887866675 143.41153189856894 161.17247967003274 H 0.0 **** 0.06
19058 H 146.03308844463675 143.78982030702807 162.8979802385482 H 0.0 **** 0.06
19059 H 144.6903579433856 142.74174901129663 162.37835064570046 H 0.0 **** 0.06
19060 H 144.65897235737702 144.48114350831997 161.9999603116819 H 0.0 **** 0.06
19061 C 67.98781981724125 143.25292060876492 162.43706884101846 C 0.0 **** -0.24
19062 H 68.67438692389887 143.11842082340266 163.27328060329393 H 0.0 **** 0.06
19063 H 68.55184276439354 143.27631749640477 161.5047376879782 H 0.0 **** 0.06
19064 H 67.44869186208842 144.1916937703166 162.5589444065535 H 0.0 **** 0.06
19065 H 67.27881884766937 142.42576827349168 162.41322964559168 H 0.0 **** 0.06
19066 C 63.547684892392795 31.386165524917658 4.460909807097821 C 0.0 **** -0.24
19067 H 63.45982622086865 31.14439075455192 5.519526106500123 H 0.0 **** 0.06
19068 H 64.17028488489694 30.639444734508686 3.9677556731918386 H 0.0 **** 0.06
19069 H 64.00296696697137 32.37054653440754 4.349505337027672 H 0.0 **** 0.06
19070 H 62.55746440424713 31.39103727309066 4.006229352487431 H 0.0 **** 0.06
19071 C 136.95874183076495 7.425904395817582 74.38348526769411 C 0.0 **** -0.24
19072 H 137.6626402608098 7.360596613297389 73.5548269909992 H 0.0 **** 0.06
19073 H 136.57711437199933 6.431501128683664 74.61594884833296 H 0.0 **** 0.06
19074 H 136.1289513156599 8.07718379434283 74.10566956031494 H 0.0 **** 0.06
19075 H 137.46443754324054 7.835626693695559 75.25849966309906 H 0.0 **** 0.06
19076 C 121.80711780663626 120.3754195042676 161.65585740771778 C 0.0 **** -0.24
19077 H 121.47497261923377 119.5661879193749 161.00564167760496 H 0.0 **** 0.06
19078 H 122.37405105370749 119.96215580956635 162.48962444860132 H 0.0 **** 0.06
19079 H 120.93968864957719 120.9148227038967 162.0373459996627 H 0.0 **** 0.06
19080 H 122.43893489221148 121.05996220070574 161.0890239481793 H 0.0 **** 0.06
19081 C 169.1236951795716 97.07456886808342 190.88901156243185 C 0.0 **** -0.24
19082 H 170.0023469468588 97.32769932278248 190.29610793024412 H 0.0 **** 0.06
19083 H 168.2379211519236 97.51946349412123 190.43468145758555 H 0.0 **** 0.06
19084 H 169.24537917339563 97.45801470787342 191.9020130303128 H 0.0 **** 0.06
19085 H 169.00879056536525 95.99011933705688 190.92334633445364 H 0.0 **** 0.06
19086 C 176.32475365644132 138.25278984842066 15.83315281080246 C 0.0 **** -0.24
19087 H 175.7202379420864 137.71319280591055 16.562805114630976 H 0.0 **** 0.06
19088 H 177.3771382103184 138.01498439284617 15.987613143941473 H 0.0 **** 0.06
19089 H 176.17240526726414 139.32471200469436 15.957770362014116 H 0.0 **** 0.06
19090 H 176.0284423177084 137.95803887744574 14.826729377845027 H 0.0 **** 0.06
19091 C 174.82537856213355 120.36705538810051 81.82378505827464 C 0.0 **** -0.24
19092 H 175.60032114992237 119.81998229622153 81.28687379928351 H 0.0 **** 0.06
19093 H 173.92896757039597 119.74936679911332 81.89465018893276 H 0.0 **** 0.06
19094 H 174.59240708956807 121.28698119011432 81.28931761037893 H 0.0 **** 0.06
19095 H 175.17955563401853 120.6084220390901 82.82567547668643 H 0.0 **** 0.06
19096 C 165.64824044253925 68.93392983738985 91.94926776939809 C 0.0 **** -0.24
19097 H 166.7074438574758 68.85705764935241 91.70490847958791 H 0.0 **** 0.06
19098 H 165.50746535380188 68.7564943713405 93.01609425041218 H 0.0 **** 0.06
19099 H 165.08931257103205 68.19167943702084 91.3805546333129 H 0.0 **** 0.06
19100 H 165.2898119922717 69.93205755576031 91.69669145355155 H 0.0 **** 0.06
19101 C 70.22134792053151 86.12269165882651 144.5301740486194 C 0.0 **** -0.24
19102 H 70.16408573831819 85.3220341824267 145.26666322099533 H 0.0 **** 0.06
19103 H 71.05781950698417 86.7789512282418 144.77158936840226 H 0.0 **** 0.06
19104 H 69.29393936968074 86.69545870815136 144.5429009436651 H 0.0 **** 0.06
19105 H 70.37085142242705 85.69399819365077 143.539102757761 H 0.0 **** 0.06
19106 C 74.64819919096306 172.7753933741206 178.68539924661712 C 0.0 **** -0.24
19107 H 74.02307516830552 172.15870249599857 179.3328458053649 H 0.0 **** 0.06
19108 H 75.35525024585445 172.1394977372737 178.1514926499893 H 0.0 **** 0.06
19109 H 75.19350921141074 173.4988603929371 179.29135562569363 H 0.0 **** 0.06
19110 H 74.01896331806483 173.3018351958085 177.9687020459892 H 0.0 **** 0.06
19111 C 8.793778469241971 14.383999210596897 168.2247315491988 C 0.0 **** -0.24
19112 H 9.306796811522418 13.508422583198808 167.8276516841343 H 0.0 **** 0.06
19113 H 9.05671543071091 14.513041980801717 169.27539221473205 H 0.0 **** 0.06
19114 H 7.716818635885602 14.244868984873108 168.13450426120065 H 0.0 **** 0.06
19115 H 9.095019839711767 15.267865527115987 167.66268649019224 H 0.0 **** 0.06
19116 C 47.381831859834904 155.99392620853334 145.89147861952665 C 0.0 **** -0.24
19117 H 46.38146318740844 155.63026018981336 146.12800398050484 H 0.0 **** 0.06
19118 H 48.106050514577746 155.19531170618154 146.05595635554576 H 0.0 **** 0.06
19119 H 47.6209990382594 156.8400563993452 146.53568700518235 H 0.0 **** 0.06
19120 H 47.41770480088937 156.30882679649883 144.8487584146028 H 0.0 **** 0.06
19121 C 182.7804867055931 83.53506043151711 84.68058758151807 C 0.0 **** -0.24
19122 H 182.60047348301782 84.419713402258 84.06954580752651 H 0.0 **** 0.06
19123 H 183.85377308964576 83.36049839687016 84.7608816201539 H 0.0 **** 0.06
19124 H 182.3053119368118 82.67007016425976 84.21702369590744 H 0.0 **** 0.06
19125 H 182.362388312897 83.68995976268039 85.67489920248437 H 0.0 **** 0.06
19126 C 149.22040223908908 141.772411334429 121.9461297252522 C 0.0 **** -0.24
19127 H 149.25903006892554 141.10196595719225 122.80424950311894 H 0.0 **** 0.06
19128 H 149.492092338412 141.22354365461953 121.04411561490687 H 0.0 **** 0.06
19129 H 149.91957333465461 142.59577352550758 122.09576657417952 H 0.0 **** 0.06
19130 H 148.21091321436433 142.16836220039656 121.84038720880363 H 0.0 **** 0.06
19131 C 23.336800965447253 105.95157989096128 104.58578203377749 C 0.0 **** -0.24
19132 H 22.913462525980776 105.63215450170361 103.63255241429988 H 0.0 **** 0.06
19133 H 24.156913612559038 106.64663060325884 104.4035337063583 H 0.0 **** 0.06
19134 H 23.710123573679738 105.08280793816209 105.12607007000543 H 0.0 **** 0.06
19135 H 22.56609418992008 106.4451537854977 105.17730510702563 H 0.0 **** 0.06
19136 C 181.84662013018908 84.71122261861373 151.489660587657 C 0.0 **** -0.24
19137 H 182.61059286030456 84.01419053120387 151.83162342673188 H 0.0 **** 0.06
19138 H 181.16751575392794 84.19906013853398 150.80667115669837 H 0.0 **** 0.06
19139 H 182.32148522627102 85.54553957153314 150.9722071388535 H 0.0 **** 0.06
19140 H 181.28675458385416 85.08626799737004 152.3459147546276 H 0.0 **** 0.06
19141 C 71.2266845311847 180.72183507217866 94.42709487712844 C 0.0 **** -0.24
19142 H 72.02891733335042 181.45417620922876 94.51929400359595 H 0.0 **** 0.06
19143 H 70.52791591497049 180.8434046566111 95.25510873667815 H 0.0 **** 0.06
19144 H 71.64820860636236 179.7169749098478 94.45147086485679 H 0.0 **** 0.06
19145 H 70.70250387813901 180.87388093063203 93.48288758499453 H 0.0 **** 0.06
19146 C 193.94658231192642 70.95328728136712 43.33035711695686 C 0.0 **** -0.24
19147 H 194.87376900087722 71.526613431425 43.32954606639947 H 0.0 **** 0.06
19148 H 193.1679219488741 71.52164332881495 42.82041873612394 H 0.0 **** 0.06
19149 H 193.64057970836691 70.75993183721874 44.35899105718471 H 0.0 **** 0.06
19150 H 194.1043849638882 70.00681930624336 42.81403419481035 H 0.0 **** 0.06
19151 C 42.72355548379312 178.89946544746195 178.86341761467955 C 0.0 **** -0.24
19152 H 42.06324934235434 179.46435671027467 178.20492284894382 H 0.0 **** 0.06
19153 H 43.714002671618175 178.83110013098616 178.41352070071045 H 0.0 **** 0.06
19154 H 42.32022471207401 177.89707492239046 179.00907206399503 H 0.0 **** 0.06
19155 H 42.795526976656646 179.4054013021576 179.82686959860774 H 0.0 **** 0.06
19156 C 161.13099425278614 124.32286635802691 24.096650043872074 C 0.0 **** -0.24
19157 H 161.13199590040398 125.10581636504008 23.33746034874261 H 0.0 **** 0.06
19158 H 160.1183649263478 123.94203472739076 24.223735708846164 H 0.0 **** 0.06
19159 H 161.4867428549037 124.73447513388865 25.04157588568185 H 0.0 **** 0.06
19160 H 161.78926245871838 123.51230171761685 23.782692033316607 H 0.0 **** 0.06
19161 C 24.104019093034807 183.60938988331907 127.30977718721633 C 0.0 **** -0.24
19162 H 23.442413573510507 183.04538905072417 126.65185174136931 H 0.0 **** 0.06
19163 H 23.75154558532229 184.6379411384366 127.38329189706386 H 0.0 **** 0.06
19164 H 25.114933600717805 183.59911728290223 126.90389791225638 H 0.0 **** 0.06
19165 H 24.104944461516666 183.1531256788944 128.30026889674073 H 0.0 **** 0.06
19166 C 87.5980492310972 85.74612695787118 7.672649480134687 C 0.0 **** -0.24
19167 H 86.70247137823728 85.75623249661459 8.294145157295311 H 0.0 **** 0.06
19168 H 88.33890311615914 85.07943527359848 8.113925358330022 H 0.0 **** 0.06
19169 H 88.00691341839652 86.7549646713889 7.611190230219393 H 0.0 **** 0.06
19170 H 87.34157928334974 85.39588661127655 6.6732153748485175 H 0.0 **** 0.06
19171 C 16.44968217925063 72.25818109346073 151.7580465963714 C 0.0 **** -0.24
19172 H 16.640969068368236 71.75720029113506 152.70736227546925 H 0.0 **** 0.06
19173 H 15.37535622840906 72.29474226628383 151.57774764306714 H 0.0 **** 0.06
19174 H 16.935843787487386 71.7070691299777 150.9533844530045 H 0.0 **** 0.06
19175 H 16.847738828098443 73.27164810356635 151.79640260001605 H 0.0 **** 0.06
19176 C 191.803796983231 91.5260078708393 150.6624645730045 C 0.0 **** -0.24
19177 H 191.25752186290396 90.84695883000362 151.31711759195707 H 0.0 **** 0.06
19178 H 192.6115204896468 90.98393061156006 150.16932494403392 H 0.0 **** 0.06
19179 H 192.22156689105822 92.34156540679302 151.25329103299168 H 0.0 **** 0.06
19180 H 191.12529050089694 91.93134221407914 149.91245678238377 H 0.0 **** 0.06
19181 C 26.911529409132257 42.39647253284579 183.86307807357417 C 0.0 **** -0.24
19182 H 26.16262790408618 42.249758627591916 184.64143483661752 H 0.0 **** 0.06
19183 H 26.79771252902445 41.62657252905365 183.100089620921 H 0.0 **** 0.06
19184 H 27.907352208556404 42.33017496150069 184.30159406184896 H 0.0 **** 0.06
19185 H 26.778747310780048 43.37910654590402 183.41138904992886 H 0.0 **** 0.06
19186 C 52.0545562678501 167.106701257248 5.58557830056553 C 0.0 **** -0.24
19187 H 52.25559850494753 167.38527099465136 6.619491536152097 H 0.0 **** 0.06
19188 H 52.00646358677085 168.00573422530323 4.970385226084204 H 0.0 **** 0.06
19189 H 51.102980719612106 166.57722351920464 5.530879131645818 H 0.0 **** 0.06
19190 H 52.852274996269614 166.45904823911647 5.222534129501604 H 0.0 **** 0.06
19191 C 171.50573519767207 93.81148898347857 163.57796361327337 C 0.0 **** -0.24
19192 H 171.61886744253172 94.07956941893076 164.62763766868534 H 0.0 **** 0.06
19193 H 172.4819453467116 93.56189017949839 163.15980824939274 H 0.0 **** 0.06
19194 H 171.0808548907351 94.65287222806654 163.03151085200074 H 0.0 **** 0.06
19195 H 170.843111337058 92.95084520877538 163.491890534128 H 0.0 **** 0.06
19196 C 1.3891947200441095 117.31748154603855 59.45066546675321 C 0.0 **** -0.24
19197 H 0.42414200042416184 117.81831933783917 59.51790687062066 H 0.0 **** 0.06
19198 H 2.171667519930807 118.05642187322792 59.276363415516926 H 0.0 **** 0.06
19199 H 1.3728563009883246 116.60477006197658 58.626171029529246 H 0.0 **** 0.06
19200 H 1.5895242298761332 116.78874979870807 60.38333236368425 H 0.0 **** 0.06
19201 C 180.8231196162682 115.6564183095247 18.963388530188936 C 0.0 **** -0.24
19202 H 181.1311846955439 114.61223293270888 18.915623738976066 H 0.0 **** 0.06
19203 H 179.95740251761163 115.750548982644 19.620284291587367 H 0.0 **** 0.06
19204 H 180.56128614860722 116.00407963469675 17.96401096278852 H 0.0 **** 0.06
19205 H 181.6426567162199 116.25894348395468 19.354625070616052 H 0.0 **** 0.06
19206 C 126.43355034495053 5.4201707778856445 22.68468359700512 C 0.0 **** -0.24
19207 H 127.30311949809635 5.789527816548308 23.22828137809475 H 0.0 **** 0.06
19208 H 126.6738035781687 4.46307380349527 22.22209367043007 H 0.0 **** 0.06
19209 H 126.15594484653838 6.137568636783023 21.913092280641138 H 0.0 **** 0.06
19210 H 125.6006425337008 5.291551672376123 23.37646853616002 H 0.0 **** 0.06
19211 C 88.28019671640806 93.35966285194417 64.49206600256755 C 0.0 **** -0.24
19212 H 88.14769298369583 93.05128168414174 63.45491244416044 H 0.0 **** 0.06
19213 H 88.76625631811942 94.33560741771578 64.5214935843706 H 0.0 **** 0.06
19214 H 88.89961505581726 92.62844430464713 65.01140696824612 H 0.0 **** 0.06
19215 H 87.30669565798638 93.4234958160063 64.97961985009118 H 0.0 **** 0.06
19216 C 179.05649394715942 159.50488159926022 11.645675659783478 C 0.0 **** -0.24
19217 H 179.07854411253078 159.41767831900367 12.732451204030099 H 0.0 **** 0.06
19218 H 178.17849775241146 160.0775516536077 11.345503390699946 H 0.0 **** 0.06
19219 H 179.0110164072301 158.5102879894125 11.20321209700262 H 0.0 **** 0.06
19220 H 179.9579278002753 160.01344826163887 11.304308360242771 H 0.0 **** 0.06
19221 C 130.18667171038337 160.4316139213709 138.51333866967434 C 0.0 **** -0.24
19222 H 129.65793642613554 160.37412892854343 137.56179772924776 H 0.0 **** 0.06
19223 H 129.81670375334767 159.65454699179895 139.1817086012886 H 0.0 **** 0.06
19224 H 130.01722146151545 161.41050770214952 138.96379765719365 H 0.0 **** 0.06
19225 H 131.2541202709405 160.2895361190914 138.34543648095132 H 0.0 **** 0.06
19226 C 38.4763579990795 54.100412577362036 31.532448816251957 C 0.0 **** -0.24
19227 H 38.73305784768618 53.455796010376844 30.692209959125307 H 0.0 **** 0.06
19228 H 37.71531103720139 54.81652424481251 31.220906997645216 H 0.0 **** 0.06
19229 H 39.36493419812048 54.63629194874889 31.86562341359968 H 0.0 **** 0.06
19230 H 38.0901631121266 53.49340367244089 32.35100936449933 H 0.0 **** 0.06
19231 C 147.1632017421391 176.60553199596578 22.25638678070844 C 0.0 **** -0.24
19232 H 146.21485088184332 177.04939305505917 22.560205313697324 H 0.0 **** 0.06
19233 H 147.60122308507658 176.07295262913598 23.101225361993272 H 0.0 **** 0.06
19234 H 147.8447804663273 177.3923364853964 21.931045652380874 H 0.0 **** 0.06
19235 H 146.99262383334545 175.90945008127645 21.436158281661307 H 0.0 **** 0.06
19236 C 195.26355330582442 48.301971966161915 103.85772954245235 C 0.0 **** -0.24
19237 H 196.101434432364 48.27244844578149 104.55418575712744 H 0.0 **** 0.06
19238 H 194.98105756714585 49.33859215278622 103.67305026081783 H 0.0 **** 0.06
19239 H 194.41625655814002 47.76609975302949 104.28672359439702 H 0.0 **** 0.06
19240 H 195.55340157360638 47.830878428440315 102.91888901993053 H 0.0 **** 0.06
19241 C 55.5677448247219 94.76673706664903 23.401059595387594 C 0.0 **** -0.24
19242 H 56.55694726130227 94.40728595652672 23.11691327905268 H 0.0 **** 0.06
19243 H 55.21645334725724 95.4873859948234 22.66132846700293 H 0.0 **** 0.06
19244 H 55.62225539891202 95.24540821425123 24.37799878367943 H 0.0 **** 0.06
19245 H 54.875723109162436 93.92616712029653 23.445912454991017 H 0.0 **** 0.06
19246 C 1.436991481956106 152.57369264116227 33.621830542818145 C 0.0 **** -0.24
19247 H 0.8650931958252812 152.60918986471648 32.695323149211276 H 0.0 **** 0.06
19248 H 1.78990032727868 151.5562115766728 33.79165199173093 H 0.0 **** 0.06
19249 H 0.80128043303705 152.88164838585237 34.45248896987664 H 0.0 **** 0.06
19250 H 2.2903860366903714 153.24763740189462 33.54839437399974 H 0.0 **** 0.06
19251 C 73.70267103711916 96.42543126143545 78.78706921150365 C 0.0 **** -0.24
19252 H 73.00760767149353 95.68318382435083 78.39366565590683 H 0.0 **** 0.06
19253 H 74.68698829129494 95.97191553891867 78.90946915410467 H 0.0 **** 0.06
19254 H 73.34434415645103 96.78177885961438 79.75224945031488 H 0.0 **** 0.06
19255 H 73.77140051644477 97.26263913013156 78.09280203254838 H 0.0 **** 0.06
19256 C 177.5931791280804 106.42001039105355 103.61485445785576 C 0.0 **** -0.24
19257 H 177.43947212856224 105.78608655763594 104.4882990298205 H 0.0 **** 0.06
19258 H 177.12437829241352 107.38916369943502 103.782530642903 H 0.0 **** 0.06
19259 H 177.14772905852772 105.94675188816677 102.74025266814084 H 0.0 **** 0.06
19260 H 178.66163330964147 106.55615165486347 103.44981541814792 H 0.0 **** 0.06
19261 C 150.27948736810725 6.918604340712136 49.49705122068019 C 0.0 **** -0.24
19262 H 149.24376053882432 7.0605593531530815 49.19085951576733 H 0.0 **** 0.06
19263 H 150.76502904861024 7.889400570207243 49.60259110067226 H 0.0 **** 0.06
19264 H 150.803961800234 6.3297837260486745 48.7441610909373 H 0.0 **** 0.06
19265 H 150.30644301596968 6.3935884495011805 50.45210064227642 H 0.0 **** 0.06
19266 C 65.54503920240546 11.551958267834891 189.8340471635709 C 0.0 **** -0.24
19267 H 66.30728695526159 11.790993230937346 190.57575622790162 H 0.0 **** 0.06
19268 H 64.5896756894781 11.974796639700116 190.14578257140985 H 0.0 **** 0.06
19269 H 65.45244135359334 10.469350835364622 189.74517941509188 H 0.0 **** 0.06
19270 H 65.83184634998048 11.97163568135636 188.87029969071318 H 0.0 **** 0.06
19271 C 91.85582660140315 98.75197254365168 63.465211837063976 C 0.0 **** -0.24
19272 H 92.24585886653611 99.72378100116089 63.76573606133158 H 0.0 **** 0.06
19273 H 92.07964695628098 98.58074953732034 62.411956489395266 H 0.0 **** 0.06
19274 H 90.77621564566533 98.73167306073836 63.614609968494904 H 0.0 **** 0.06
19275 H 92.3203057265464 97.97216149904094 64.06747799603176 H 0.0 **** 0.06
19276 C 158.18338829289047 159.44494984252805 97.4458106560403 C 0.0 **** -0.24
19277 H 158.86198940176578 158.96555631693644 96.7400167252215 H 0.0 **** 0.06
19278 H 158.65763498342636 160.33637652752304 97.85718668696222 H 0.0 **** 0.06
19279 H 157.95032881117183 158.75101937354643 98.25328415994488 H 0.0 **** 0.06
19280 H 157.26414075716306 159.72619352455007 96.93222557351515 H 0.0 **** 0.06
19281 C 73.29758465682266 19.84542471081727 102.19822593269029 C 0.0 **** -0.24
19282 H 74.2869795387943 19.816979821590053 101.74031396944972 H 0.0 **** 0.06
19283 H 73.02036757326135 20.881672573896054 102.3970620018872 H 0.0 **** 0.06
19284 H 73.31422998877844 19.287461560446843 103.13414725744033 H 0.0 **** 0.06
19285 H 72.57118513892698 19.397959532583968 101.52068234588177 H 0.0 **** 0.06
19286 C 194.86338739118898 84.73719031014303 104.4524417059767 C 0.0 **** -0.24
19287 H 194.77566906593998 85.48858889662819 103.66870877440601 H 0.0 **** 0.06
19288 H 195.70141965941045 84.98724806120495 105.10400271466955 H 0.0 **** 0.06
19289 H 195.03348309602498 83.7592111590561 104.00015866052445 H 0.0 **** 0.06
19290 H 193.94353249442503 84.71207409465606 105.03681986299551 H 0.0 **** 0.06
19291 C 43.796569684594544 120.73065334906852 197.449494874685 C 0.0 **** -0.24
19292 H 42.77971278881677 121.03943133641002 197.6924720266461 H 0.0 **** 0.06
19293 H 43.95652974901179 119.70694468298649 197.79005626178375 H 0.0 **** 0.06
19294 H 44.50554191934603 121.39371676028043 197.94376092934425 H 0.0 **** 0.06
19295 H 43.94276002363205 120.78135743339686 196.3708906162846 H 0.0 **** 0.06
19296 C 106.46566880087391 102.44378725997939 100.35120970957803 C 0.0 **** -0.24
19297 H 105.51275806317022 102.85960357065173 100.02611807297953 H 0.0 **** 0.06
19298 H 106.51211971075429 102.45075673237574 101.44002577009633 H 0.0 **** 0.06
19299 H 107.28090567731977 103.04585255307518 99.94913892654208 H 0.0 **** 0.06
19300 H 106.55835641622386 101.41980206556175 99.98988021850238 H 0.0 **** 0.06
19301 C 87.45510177514723 159.7129265766848 45.60841225202108 C 0.0 **** -0.24
19302 H 88.52039880208426 159.94162007978065 45.61708344574913 H 0.0 **** 0.06
19303 H 86.88688346017054 160.63568914068196 45.48742920054133 H 0.0 **** 0.06
19304 H 87.1786197971345 159.23677776901945 46.54865461012031 H 0.0 **** 0.06
19305 H 87.23497924872004 159.0391277823125 44.77977483919395 H 0.0 **** 0.06
19306 C 160.61100914143458 91.42574822467972 15.921177021650337 C 0.0 **** -0.24
19307 H 159.62424760278577 90.9663711301018 15.964095548927943 H 0.0 **** 0.06
19308 H 160.52034461673674 92.49864218385147 16.086725047780803 H 0.0 **** 0.06
19309 H 161.05412410901044 91.2444340979707 14.941383155829783 H 0.0 **** 0.06
19310 H 161.24729744920757 90.9913302487166 16.692932758507368 H 0.0 **** 0.06
19311 C 78.4926439330581 79.5026169925402 71.09335582602603 C 0.0 **** -0.24
19312 H 78.88069932296588 79.49816368573198 72.11171669296893 H 0.0 **** 0.06
19313 H 78.84035601175299 78.61265282042953 70.56874476418926 H 0.0 **** 0.06
19314 H 78.84807260290341 80.39303287012396 70.57411626418764 H 0.0 **** 0.06
19315 H 77.40344870003236 79.50872315372101 71.12009754981631 H 0.0 **** 0.06
19316 C 43.586663628151 165.12069411715075 138.77206720301632 C 0.0 **** -0.24
19317 H 43.455484130474105 165.8913978044287 139.53048424600735 H 0.0 **** 0.06
19318 H 42.696937675908316 164.49144661047796 138.73609493676793 H 0.0 **** 0.06
19319 H 44.45466076687427 164.51001581971076 139.02016932353115 H 0.0 **** 0.06
19320 H 43.73880640654005 165.5899335082153 137.80033131275832 H 0.0 **** 0.06
19321 C 135.54350787400145 138.57046481535104 94.4803455677116 C 0.0 **** -0.24
19322 H 134.93804896479023 138.0552082860753 93.73385248201609 H 0.0 **** 0.06
19323 H 136.0888033720814 139.38538952648176 94.0039998710221 H 0.0 **** 0.06
19324 H 136.25039160277797 137.8682437254763 94.92198864957601 H 0.0 **** 0.06
19325 H 134.8962141371126 138.9726822465584 95.25918356269915 H 0.0 **** 0.06
19326 C 49.266602526492605 38.08688984776779 60.7258631072699 C 0.0 **** -0.24
19327 H 48.523059297290246 38.81632611552419 60.404141352959016 H 0.0 **** 0.06
19328 H 49.98085136443015 38.56775026689445 61.39490612269748 H 0.0 **** 0.06
19329 H 49.79104391730442 37.694896707832896 59.854923230236295 H 0.0 **** 0.06
19330 H 48.77154335474488 37.270523378178154 61.24997172732071 H 0.0 **** 0.06
19331 C 23.829722052490283 168.73260073403728 8.532812664306107 C 0.0 **** -0.24
19332 H 24.515440930653142 169.57984737445423 8.54242689135856 H 0.0 **** 0.06
19333 H 22.808687182130953 169.08950919677403 8.669362415576188 H 0.0 **** 0.06
19334 H 24.088131101804336 168.04824543706263 9.341325674952827 H 0.0 **** 0.06
19335 H 23.909406751380615 168.21312124163265 7.577709478692782 H 0.0 **** 0.06
19336 C 48.88995108267875 87.90321190668294 128.4522409069354 C 0.0 **** -0.24
19337 H 49.76878950055368 87.7142076469089 129.0693755157399 H 0.0 **** 0.06
19338 H 48.92072552656347 88.92710248561255 128.07906841579816 H 0.0 **** 0.06
19339 H 47.989454545633265 87.76059385126337 129.04864071743242 H 0.0 **** 0.06
19340 H 48.88220575344661 87.20904094048205 127.61117171332003 H 0.0 **** 0.06
19341 C 137.18536660235432 131.79479274962168 118.69987871837719 C 0.0 **** -0.24
19342 H 137.80311617208534 132.6915240439927 118.75912533832684 H 0.0 **** 0.06
19343 H 137.17315007645064 131.4295844649854 117.6728985091745 H 0.0 **** 0.06
19344 H 136.16948683924608 132.03230150409885 119.0152080310612 H 0.0 **** 0.06
19345 H 137.59821363519163 131.02636021775672 119.35437812990546 H 0.0 **** 0.06
19346 C 53.31094076007227 63.79059386817289 88.31263615304675 C 0.0 **** -0.24
19347 H 53.68293656061911 62.79685966062323 88.5654565800312 H 0.0 **** 0.06
19348 H 54.11655984781174 64.37797295614504 87.86994730515198 H 0.0 **** 0.06
19349 H 52.95563959440901 64.28532047440012 89.21704389701972 H 0.0 **** 0.06
19350 H 52.49105016925543 63.7014037730936 87.59995654196615 H 0.0 **** 0.06
19351 C 58.45006672496015 48.310544134437464 159.59232287095764 C 0.0 **** -0.24
19352 H 58.55083593022334 49.344900481272816 159.92321897011882 H 0.0 **** 0.06
19353 H 58.886966065434876 47.64651504389673 160.33878119885645 H 0.0 **** 0.06
19354 H 58.96768116100441 48.18193258513054 158.64238128309518 H 0.0 **** 0.06
19355 H 57.3940727119998 48.0716068175156 159.46624239787798 H 0.0 **** 0.06
19356 C 183.70589438976538 71.69685720855338 47.61968232885408 C 0.0 **** -0.24
19357 H 184.74377794264439 71.36421390897706 47.599265377891925 H 0.0 **** 0.06
19358 H 183.50251711372707 72.19474864371827 48.56807966013275 H 0.0 **** 0.06
19359 H 183.0471600661411 70.83532229662895 47.51221437760836 H 0.0 **** 0.06
19360 H 183.5308028791843 72.39241646414759 46.79908196226427 H 0.0 **** 0.06
19361 C 192.88586306676143 170.04734684573302 137.02685718211205 C 0.0 **** -0.24
19362 H 192.2401209545011 170.52742912423113 137.761846163888 H 0.0 **** 0.06
19363 H 192.9813660791197 168.98757920733806 137.26643690272724 H 0.0 **** 0.06
19364 H 193.87005416179073 170.51478147027447 137.04772416360538 H 0.0 **** 0.06
19365 H 192.4507311264923 170.15769920444606 136.03442219784938 H 0.0 **** 0.06
19366 C 45.48212362919834 9.843005324727955 109.33409961950869 C 0.0 **** -0.24
19367 H 45.44015835502857 9.359368306380105 110.31074277990422 H 0.0 **** 0.06
19368 H 44.81726170733171 10.70716388808728 109.32783058939197 H 0.0 **** 0.06
19369 H 45.16872555580311 9.136389740800809 108.56605877975511 H 0.0 **** 0.06
19370 H 46.503209624825686 10.168010459397152 109.13524105783509 H 0.0 **** 0.06
19371 C 117.1539227089757 1.3104907265237102 152.83766982530022 C 0.0 **** -0.24
19372 H 116.29444110581892 1.0863261181017663 152.2064961027828 H 0.0 **** 0.06
19373 H 117.30811604673752 2.389030749158337 152.8716774449856 H 0.0 **** 0.06
19374 H 118.04106592566023 0.8286184158930041 152.42774464490083 H 0.0 **** 0.06
19375 H 116.97044074417187 0.9362409449901463 153.84531072008414 H 0.0 **** 0.06
19376 C 74.25918986088334 162.45386529394142 16.922336768802893 C 0.0 **** -0.24
19377 H 73.62541638543121 161.9254917358773 17.63466201093786 H 0.0 **** 0.06
19378 H 75.11185952294716 161.82763129466272 16.662357770020378 H 0.0 **** 0.06
19379 H 74.612272094817 163.3821148299515 17.37073324689308 H 0.0 **** 0.06
19380 H 73.68529343253948 162.67842829867067 16.0233545523009 H 0.0 **** 0.06
19381 C 9.547761287107107 175.717701853639 180.32091519999727 C 0.0 **** -0.24
19382 H 9.525542587539917 176.7930051365456 180.14035803748 H 0.0 **** 0.06
19383 H 10.524539606589542 175.32233010403172 180.03868476392674 H 0.0 **** 0.06
19384 H 8.77407003100879 175.2347924081341 179.7247373984068 H 0.0 **** 0.06
19385 H 9.366803313677678 175.5237719447575 181.3777756768221 H 0.0 **** 0.06
19386 C 91.97201215760211 93.11545088565555 155.8589925709589 C 0.0 **** -0.24
19387 H 91.42931961418279 94.03021358054323 156.09746416100631 H 0.0 **** 0.06
19388 H 91.54473495382993 92.66328815081181 154.96366539832948 H 0.0 **** 0.06
19389 H 91.89349933916532 92.41786517429352 156.69232658337373 H 0.0 **** 0.06
19390 H 93.02119692744463 93.35230676447526 155.68150933246102 H 0.0 **** 0.06
19391 C 136.636378741108 118.67665275062836 37.03246706091565 C 0.0 **** -0.24
19392 H 137.39044617856365 117.9148728740542 36.83367216868923 H 0.0 **** 0.06
19393 H 135.96645342043345 118.75671529528921 36.17596443323447 H 0.0 **** 0.06
19394 H 137.12685733183986 119.6351728814243 37.202577603812145 H 0.0 **** 0.06
19395 H 136.06491557753574 118.39843486571357 37.91748758317408 H 0.0 **** 0.06
19396 C 6.09421235428124 135.8927496119499 69.81808886889587 C 0.0 **** -0.24
19397 H 6.966971891284231 136.54602942262105 69.84278670901438 H 0.0 **** 0.06
19398 H 6.158315744219067 135.235207055707 68.95136906687179 H 0.0 **** 0.06
19399 H 5.190025233048772 136.49799455997567 69.74881479440899 H 0.0 **** 0.06
19400 H 6.062486342888235 135.2946345025322 70.72768845968608 H 0.0 **** 0.06
19401 C 173.11006500987492 66.3160349170129 42.56923353191709 C 0.0 **** -0.24
19402 H 172.26273971856446 66.82033092708951 42.10650139517793 H 0.0 **** 0.06
19403 H 173.77573271645548 67.05617962906186 43.012497535675095 H 0.0 **** 0.06
19404 H 173.65188161930948 65.74636120641853 41.812965491268415 H 0.0 **** 0.06
19405 H 172.75118121281378 65.6387446378002 43.34488551766724 H 0.0 **** 0.06
19406 C 0.36584402403946115 93.6503843193392 95.24419474555256 C 0.0 **** -0.24
19407 H -0.4420218468840744 93.64910738380343 95.97520415934503 H 0.0 **** 0.06
19408 H 1.3021369592855763 93.90958598432593 95.73845451435201 H 0.0 **** 0.06
19409 H 0.15106263786236696 94.38194967706977 94.46628554108696 H 0.0 **** 0.06
19410 H 0.4525869624216625 92.65962693369971 94.79732769241727 H 0.0 **** 0.06
19411 C 71.67131242010528 77.52635117915924 17.86824833937814 C 0.0 **** -0.24
19412 H 72.6908502921471 77.16776573441784 17.727572532086867 H 0.0 **** 0.06
19413 H 71.01188956244701 77.03633300293932 17.15186620298114 H 0.0 **** 0.06
19414 H 71.64082671870528 78.60521460656815 17.710001542921532 H 0.0 **** 0.06
19415 H 71.34286685073532 77.2987945047347 18.88148133886834 H 0.0 **** 0.06
19416 C 122.38112266701353 13.377333603856371 153.2390746565402 C 0.0 **** -0.24
19417 H 121.66949602066907 13.128573928129292 154.0266518479491 H 0.0 **** 0.06
19418 H 122.98410580215034 14.231011581227875 153.551527809275 H 0.0 **** 0.06
19419 H 121.83955160097429 13.628702077649393 152.32751372133782 H 0.0 **** 0.06
19420 H 123.03016051160449 12.522313775130918 153.0530568472471 H 0.0 **** 0.06
19421 C 193.22096383355182 61.62958873283603 182.82346500367356 C 0.0 **** -0.24
19422 H 193.49909946559308 60.65054064244558 182.4321989710549 H 0.0 **** 0.06
19423 H 193.52127788969136 61.70070326879656 183.86922926456782 H 0.0 **** 0.06
19424 H 192.14095442096817 61.75847580077627 182.745647935584 H 0.0 **** 0.06
19425 H 193.72284689168322 62.40738028165276 182.2473500854592 H 0.0 **** 0.06
19426 C 112.14441976719507 78.43384608254908 186.3309121246101 C 0.0 **** -0.24
19427 H 112.64703764206052 77.4793139516839 186.17165639529742 H 0.0 **** 0.06
19428 H 111.81596821990837 78.83576463744336 185.37207545788993 H 0.0 **** 0.06
19429 H 112.83397907746439 79.13349223834834 186.80256653478045 H 0.0 **** 0.06
19430 H 111.28012109190752 78.28482434681156 186.97819568421045 H 0.0 **** 0.06
19431 C 45.462964751092386 0.3510895355351522 187.1907979030629 C 0.0 **** -0.24
19432 H 44.465452142162405 -0.052861319130215634 187.36637695806203 H 0.0 **** 0.06
19433 H 45.75874722416688 0.1515416028735359 186.16075274007443 H 0.0 **** 0.06
19434 H 46.171162975656046 -0.12180516866258273 187.87067328923527 H 0.0 **** 0.06
19435 H 45.4553813298341 1.426965318667584 187.36469001586397 H 0.0 **** 0.06
19436 C 40.45535383274614 194.02681380660758 72.7058146171583 C 0.0 **** -0.24
19437 H 40.5114019999711 194.05737901937397 73.79383072352047 H 0.0 **** 0.06
19438 H 39.412875654121805 194.09397563884545 72.39357715621517 H 0.0 **** 0.06
19439 H 40.88241058453765 193.09046883766572 72.34677240421492 H 0.0 **** 0.06
19440 H 41.014014423316425 194.86437635130767 72.28969326251628 H 0.0 **** 0.06
19441 C 127.50410215394186 83.82785811427698 135.930010507754 C 0.0 **** -0.24
19442 H 127.50081132403375 83.37134068268097 136.91993004639744 H 0.0 **** 0.06
19443 H 127.8121546632733 83.08855559807154 135.1902793839232 H 0.0 **** 0.06
19444 H 128.20110876716808 84.66622047998135 135.91878454609946 H 0.0 **** 0.06
19445 H 126.50233386129241 84.18531569637418 135.6910480545958 H 0.0 **** 0.06
19446 C 155.17695844810288 2.2789173019922018 22.987660891023097 C 0.0 **** -0.24
19447 H 154.26766474075674 1.819101576380433 23.37479153420037 H 0.0 **** 0.06
19448 H 155.49954204813855 1.7487530716575037 22.091415166663808 H 0.0 **** 0.06
19449 H 155.9602599575049 2.2261714529344516 23.743055012326067 H 0.0 **** 0.06
19450 H 154.9792461008069 3.3222736633439354 22.741970003752044 H 0.0 **** 0.06
19451 C 127.97805474105249 141.3100327106541 14.006819799009662 C 0.0 **** -0.24
19452 H 127.39465781254106 140.9040151991228 14.833776573675266 H 0.0 **** 0.06
19453 H 127.89075665790403 142.39652067806492 13.999918772232888 H 0.0 **** 0.06
19454 H 127.60183701693191 140.90844645802687 13.065660727080967 H 0.0 **** 0.06
19455 H 129.02386794285562 141.02975468516613 14.129610847644443 H 0.0 **** 0.06
19456 C 27.092779015155514 60.30659694720998 193.9485728935021 C 0.0 **** -0.24
19457 H 27.32094382417411 61.202358967293065 193.37111475527036 H 0.0 **** 0.06
19458 H 26.76363005708471 60.59300023434301 194.94795361425986 H 0.0 **** 0.06
19459 H 27.98482613180289 59.68431698603551 194.02374127355841 H 0.0 **** 0.06
19460 H 26.29976117444299 59.747564438365146 193.4521536807947 H 0.0 **** 0.06
19461 C 177.2677178243694 123.8041675273447 57.47773809804815 C 0.0 **** -0.24
19462 H 177.6156349828815 124.1887358324608 58.4370235482036 H 0.0 **** 0.06
19463 H 177.8385158855196 124.26792782297605 56.67332114082086 H 0.0 **** 0.06
19464 H 176.21027680414883 124.03713209951673 57.35545701133685 H 0.0 **** 0.06
19465 H 177.40878872269582 122.72343476944513 57.447831500008334 H 0.0 **** 0.06
19466 C 65.43804678819913 111.19654437345503 2.8765578424158775 C 0.0 **** -0.24
19467 H 66.33846449283078 111.7461611372421 3.149099639263966 H 0.0 **** 0.06
19468 H 65.30940196575642 111.22392058005903 1.7942031176663988 H 0.0 **** 0.06
19469 H 64.57352951566236 111.65391587250059 3.3569283901071856 H 0.0 **** 0.06
19470 H 65.53085713511547 110.16112692907598 3.205058449439292 H 0.0 **** 0.06
19471 C 168.08693000760368 47.931696698321616 150.42332491704545 C 0.0 **** -0.24
19472 H 168.01005351604837 48.94237583120895 150.8244126643046 H 0.0 **** 0.06
19473 H 169.08449319679903 47.77915415100651 150.01084201230987 H 0.0 **** 0.06
19474 H 167.3439556454072 47.796638149870205 149.6369210891734 H 0.0 **** 0.06
19475 H 167.9077107453046 47.21023895698619 151.22007321560883 H 0.0 **** 0.06
19476 C 109.01089240168017 38.68781942037609 95.6352408339769 C 0.0 **** -0.24
19477 H 109.15355866260211 39.76546706869698 95.71984923943614 H 0.0 **** 0.06
19478 H 109.57341186342259 38.31312230437648 94.77966814594603 H 0.0 **** 0.06
19479 H 107.95142172809429 38.47215204559667 95.49828774012278 H 0.0 **** 0.06
19480 H 109.3660811054311 38.20226146019478 96.54425686092688 H 0.0 **** 0.06
19481 C 154.87403562537366 97.36979537931211 6.469593286393533 C 0.0 **** -0.24
19482 H 154.47864997497078 96.51910380960962 5.914282806626467 H 0.0 **** 0.06
19483 H 154.0595425724058 97.87454735526268 6.989625211068443 H 0.0 **** 0.06
19484 H 155.35086459719196 98.06490927256215 5.778763001334809 H 0.0 **** 0.06
19485 H 155.6074283001991 97.01925286508643 7.1956000402863864 H 0.0 **** 0.06
19486 C 138.23482899786475 81.75323739633043 154.58624720086468 C 0.0 **** -0.24
19487 H 138.418287600776 80.69774747836064 154.78507284796365 H 0.0 **** 0.06
19488 H 137.66659169143406 82.18408849270938 155.41148014352453 H 0.0 **** 0.06
19489 H 137.66807312894144 81.85647451482785 153.6610717803996 H 0.0 **** 0.06
19490 H 139.1862241420296 82.27575319874381 154.4892977974679 H 0.0 **** 0.06
19491 C 50.977897076332624 154.75666721451938 104.31507832790314 C 0.0 **** -0.24
19492 H 52.05385328281943 154.74709900380608 104.4902964247213 H 0.0 **** 0.06
19493 H 50.64836451565847 155.77980945750755 104.13469562056594 H 0.0 **** 0.06
19494 H 50.464512926623144 154.35739298980846 105.19066700065798 H 0.0 **** 0.06
19495 H 50.74599379729747 154.14064810806218 103.44552209639582 H 0.0 **** 0.06
19496 C 125.98171819652006 38.979351057511266 98.55544652770965 C 0.0 **** -0.24
19497 H 126.85772114852685 38.737508037587375 99.15802057524922 H 0.0 **** 0.06
19498 H 125.12701276708313 38.40332172679895 98.9107626288478 H 0.0 **** 0.06
19499 H 126.17931415440043 38.730378704632045 97.5123342091398 H 0.0 **** 0.06
19500 H 125.76493311647533 40.04367085513681 98.6410926501477 H 0.0 **** 0.06
19501 C 29.242841223364536 77.78643826132847 7.803535216411859 C 0.0 **** -0.24
19502 H 28.456134167526983 77.24707401771293 7.275659367948606 H 0.0 **** 0.06
19503 H 29.3120928628026 78.8018015672169 7.411594816155031 H 0.0 **** 0.06
19504 H 30.193407695075038 77.2742093541085 7.657478398031401 H 0.0 **** 0.06
19505 H 29.00760800347487 77.82218250192312 8.867344112864288 H 0.0 **** 0.06
19506 C 52.498317049460866 94.9397172471034 109.2950088791903 C 0.0 **** -0.24
19507 H 52.78914503770943 93.9842495146357 109.7308932247062 H 0.0 **** 0.06
19508 H 52.78016149711493 95.74803009172282 109.9704174621362 H 0.0 **** 0.06
19509 H 51.41946711845412 94.95588501545728 109.14107348024288 H 0.0 **** 0.06
19510 H 53.00276548243812 95.07185751233337 108.33847639946717 H 0.0 **** 0.06
19511 C 117.35222340662824 46.86693511241418 51.95759373078181 C 0.0 **** -0.24
19512 H 116.82439719993295 47.79043124820964 51.71843462743378 H 0.0 **** 0.06
19513 H 117.89913347538118 46.52291641537471 51.08010744550997 H 0.0 **** 0.06
19514 H 116.63213512328048 46.10590027818995 52.25884202566746 H 0.0 **** 0.06
19515 H 118.05024044373124 47.05022966101188 52.77401947204535 H 0.0 **** 0.06
19516 C 75.06064089822831 103.65366922897422 83.50364607353902 C 0.0 **** -0.24
19517 H 75.70411083418918 104.3627352138302 84.023610046584 H 0.0 **** 0.06
19518 H 74.01671045808183 103.8874713805354 83.71515138288453 H 0.0 **** 0.06
19519 H 75.28296083197068 102.64270433304199 83.84598146588786 H 0.0 **** 0.06
19520 H 75.2383454327097 103.72125659866055 82.43058329923696 H 0.0 **** 0.06
19521 C 166.80128752096402 21.089728236577912 181.72708695580604 C 0.0 **** -0.24
19522 H 167.34789701226555 21.16898162879795 182.66642642131592 H 0.0 **** 0.06
19523 H 165.73197671530215 21.1766810757224 181.92020943221723 H 0.0 **** 0.06
19524 H 167.0102009448163 20.12374062510071 181.26576404240888 H 0.0 **** 0.06
19525 H 167.11643839229225 21.887862037682737 181.05529380590212 H 0.0 **** 0.06
19526 C 149.53416977210483 65.17303584130279 139.21887619658796 C 0.0 **** -0.24
19527 H 150.32010906242152 65.06712565264208 138.4702192829324 H 0.0 **** 0.06
19528 H 149.40386983671985 64.22721752870386 139.74475862521263 H 0.0 **** 0.06
19529 H 148.6009425212769 65.44915795683723 138.72842115346666 H 0.0 **** 0.06
19530 H 149.81341053017513 65.94993018271846 139.9313251321085 H 0.0 **** 0.06
19531 C 80.61385702514048 179.79797281487643 117.19813330500571 C 0.0 **** -0.24
19532 H 79.92349428682729 180.60985761112573 117.42683408905987 H 0.0 **** 0.06
19533 H 80.67355493225597 179.66657864415686 116.11734820522818 H 0.0 **** 0.06
19534 H 80.25633353597155 178.87627354330291 117.65716172339526 H 0.0 **** 0.06
19535 H 81.60189299968414 180.04115537638697 117.59014970411275 H 0.0 **** 0.06
19536 C 31.773298029625238 81.75301520410193 131.61731199907396 C 0.0 **** -0.24
19537 H 32.67881590682987 81.43487832045864 131.1005306308241 H 0.0 **** 0.06
19538 H 31.930370309921955 82.74233150944849 132.04904254696524 H 0.0 **** 0.06
19539 H 31.5396396733789 81.04292396307437 132.41147754545335 H 0.0 **** 0.06
19540 H 30.945284187174252 81.79149959027899 130.90960251943346 H 0.0 **** 0.06
19541 C 97.58447724434973 156.86898407497506 166.51525833005337 C 0.0 **** -0.24
19542 H 97.0372608164165 157.02922288030206 167.44391562753233 H 0.0 **** 0.06
19543 H 97.17048462749221 157.5074488837983 165.73422535784186 H 0.0 **** 0.06
19544 H 97.49542347209854 155.82453296631286 166.21661140246334 H 0.0 **** 0.06
19545 H 98.63563475350361 157.11581859483923 166.66641489185616 H 0.0 **** 0.06
19546 C 3.5531241938912217 13.153138593661254 3.2789619373038477 C 0.0 **** -0.24
19547 H 3.4642942307844464 14.229592877642744 3.130765765316312 H 0.0 **** 0.06
19548 H 3.684159091451704 12.66365245266934 2.3131695753456256 H 0.0 **** 0.06
19549 H 2.648259750917589 12.777119375165597 3.7565324269244798 H 0.0 **** 0.06
19550 H 4.413724897246368 12.94285225753876 3.9130729241720132 H 0.0 **** 0.06
19551 C 185.3163320307977 160.22676109125575 196.1242242753069 C 0.0 **** -0.24
19552 H 186.3180513333627 160.6523249082797 196.1791200594438 H 0.0 **** 0.06
19553 H 184.99638128323926 159.92219846297297 197.1204415184539 H 0.0 **** 0.06
19554 H 185.32622259994326 159.35835960950348 195.46430324948346 H 0.0 **** 0.06
19555 H 184.6253482552923 160.9723339532371 195.73258007200602 H 0.0 **** 0.06
19556 C 75.08857852547308 157.01079534701685 94.94959371497964 C 0.0 **** -0.24
19557 H 75.41714136919583 158.0473099419802 94.87357638587127 H 0.0 **** 0.06
19558 H 74.02923323650644 156.9839586857076 95.2051598273886 H 0.0 **** 0.06
19559 H 75.66315312448086 156.5036942470675 95.72429505926291 H 0.0 **** 0.06
19560 H 75.24538980925364 156.51008891991614 93.99427702734172 H 0.0 **** 0.06
19561 C 24.787688153725966 65.88036962005589 5.113412181037141 C 0.0 **** -0.24
19562 H 24.622186681213833 65.16679255393873 4.305536732492953 H 0.0 **** 0.06
19563 H 25.64218526479665 66.51199126135731 4.8703392007073205 H 0.0 **** 0.06
19564 H 24.985317399237218 65.34101405290795 6.039486111366806 H 0.0 **** 0.06
19565 H 23.900030680794487 66.50138640247282 5.2365992888584785 H 0.0 **** 0.06
19566 C 3.88163269418709 66.05929016389622 74.61823196316793 C 0.0 **** -0.24
19567 H 3.947209634463235 66.09263191396319 75.70581905315284 H 0.0 **** 0.06
19568 H 2.833805493575568 66.02862445108894 74.31931816815353 H 0.0 **** 0.06
19569 H 4.390820649767477 65.16928052932286 74.25130129703523 H 0.0 **** 0.06
19570 H 4.353816626527106 66.94797395383375 74.19881433211762 H 0.0 **** 0.06
19571 C 177.05971079404415 105.4663734322362 98.24852714671303 C 0.0 **** -0.24
19572 H 177.71664116487287 105.43424168163031 97.37911083166486 H 0.0 **** 0.06
19573 H 177.6627272320192 105.49654078289367 99.15720576698502 H 0.0 **** 0.06
19574 H 176.42917172174228 104.57690422436966 98.26004693141482 H 0.0 **** 0.06
19575 H 176.43310492860633 106.3560326339909 98.19778026271959 H 0.0 **** 0.06
19576 C 193.13988544280443 110.16825895862485 68.76486735799077 C 0.0 **** -0.24
19577 H 193.9701382105335 110.32323458264818 68.07545195970391 H 0.0 **** 0.06
19578 H 193.50968943559172 109.70330314182252 69.67804902139788 H 0.0 **** 0.06
19579 H 192.39790995753322 109.51904777615903 68.2994171308752 H 0.0 **** 0.06
19580 H 192.68372605196652 111.1289204717628 69.00369731270965 H 0.0 **** 0.06
19581 C 89.21657033432658 138.77068879673413 146.98087159774678 C 0.0 **** -0.24
19582 H 90.2228127857841 138.72214573958593 146.5658579093966 H 0.0 **** 0.06
19583 H 89.27366937009006 138.9598753534366 148.05303708859768 H 0.0 **** 0.06
19584 H 88.70511174476891 137.82353166404584 146.80609693095226 H 0.0 **** 0.06
19585 H 88.66245613364845 139.57707249490318 146.49842729177283 H 0.0 **** 0.06
19586 C 83.00758662294734 76.82707512855143 79.01924035869777 C 0.0 **** -0.24
19587 H 83.05070313308656 77.81022995181041 79.48743501138287 H 0.0 **** 0.06
19588 H 83.38592787337302 76.07646890371478 79.71301760750703 H 0.0 **** 0.06
19589 H 83.61778169275544 76.82861075035407 78.11624462604526 H 0.0 **** 0.06
19590 H 81.97437141269248 76.59415000736288 78.75916166248115 H 0.0 **** 0.06
19591 C 104.32261020695591 11.641205705259182 89.50416682509933 C 0.0 **** -0.24
19592 H 104.24193543021488 12.6895571588324 89.79100037697356 H 0.0 **** 0.06
19593 H 103.32473212351658 11.21357852991025 89.40331531622962 H 0.0 **** 0.06
19594 H 104.8752601730904 11.09729778808105 90.27003617992438 H 0.0 **** 0.06
19595 H 104.84940036445198 11.564980896860988 88.5532443364516 H 0.0 **** 0.06
19596 C 107.75912690747037 74.59579410943854 82.74348601371986 C 0.0 **** -0.24
19597 H 107.87491085813684 75.49959450435301 82.1449155375984 H 0.0 **** 0.06
19598 H 107.08206307948635 73.90876515181611 82.23672428692896 H 0.0 **** 0.06
19599 H 107.34933347001231 74.85720402542728 83.71984962841776 H 0.0 **** 0.06
19600 H 108.73099514183599 74.11958975970543 82.87313259006189 H 0.0 **** 0.06
19601 C 116.94344751656632 81.71378653752419 53.40076344989458 C 0.0 **** -0.24
19602 H 117.71788294855935 81.03525291018255 53.75859939385542 H 0.0 **** 0.06
19603 H 117.35756290177113 82.36030039882388 52.62747958035038 H 0.0 **** 0.06
19604 H 116.58372322081152 82.32313016792827 54.230428125433775 H 0.0 **** 0.06
19605 H 116.11617834032174 81.13580450628183 52.98881422396799 H 0.0 **** 0.06
19606 C 91.21287759716739 61.55620255992574 30.652415871104424 C 0.0 **** -0.24
19607 H 92.14557400260298 61.99907661850783 30.30386508015701 H 0.0 **** 0.06
19608 H 91.09626004943746 61.74644959306599 31.719546653253246 H 0.0 **** 0.06
19609 H 91.23424063547358 60.48038805893658 30.474701238102043 H 0.0 **** 0.06
19610 H 90.37588087265004 61.996775160410294 30.110408531228785 H 0.0 **** 0.06
19611 C 140.93488014253376 185.49768763559837 29.19490798866522 C 0.0 **** -0.24
19612 H 140.23135699290384 185.39646811700618 30.021116475079907 H 0.0 **** 0.06
19613 H 141.83372082062397 186.00659900038042 29.543832554240467 H 0.0 **** 0.06
19614 H 140.47443011305097 186.07982788984225 28.396520124352435 H 0.0 **** 0.06
19615 H 141.19893574798414 184.5097077329885 28.818802931624433 H 0.0 **** 0.06
19616 C 66.747605265413 2.981152986924698 5.504058339051028 C 0.0 **** -0.24
19617 H 65.86475338405907 3.487109762606309 5.113557410849921 H 0.0 **** 0.06
19618 H 66.63272703019425 2.825210188371841 6.577184398222698 H 0.0 **** 0.06
19619 H 67.62986830257188 3.5940021679941196 5.318525314544331 H 0.0 **** 0.06
19620 H 66.86399809991445 2.017946830161769 5.007125452935782 H 0.0 **** 0.06
19621 C 129.41584898752592 176.20420727741225 27.59392700356176 C 0.0 **** -0.24
19622 H 129.88108356648007 177.0344325602971 27.063555035066656 H 0.0 **** 0.06
19623 H 128.33280224598715 176.32715415203916 27.584519241051225 H 0.0 **** 0.06
19624 H 129.77081451793185 176.18718629854504 28.625057194894623 H 0.0 **** 0.06
19625 H 129.67965781389103 175.26687537841116 27.10340125326715 H 0.0 **** 0.06
19626 C 94.28708348332225 165.17913049707903 26.600285037399033 C 0.0 **** -0.24
19627 H 95.09194339618091 164.93057265225053 27.292526480398124 H 0.0 **** 0.06
19628 H 94.08078734264677 164.32167535706537 25.96038797595679 H 0.0 **** 0.06
19629 H 94.58616788732559 166.02779740600326 25.986301610752975 H 0.0 **** 0.06
19630 H 93.3902112887335 165.43573673372993 27.164126494829162 H 0.0 **** 0.06
19631 C 11.886317969155066 176.61169426954348 50.81304236531231 C 0.0 **** -0.24
19632 H 11.02155203729341 176.5258894400641 51.47182390715216 H 0.0 **** 0.06
19633 H 12.342940780961982 177.59325998344264 50.93828624678753 H 0.0 **** 0.06
19634 H 11.566356019371227 176.48847769729727 49.77721141324491 H 0.0 **** 0.06
19635 H 12.612006601820532 175.83731240892376 51.06317921000323 H 0.0 **** 0.06
19636 C 196.0425643112066 75.00888651878643 7.974060073680391 C 0.0 **** -0.24
19637 H 196.11579987558005 75.19981879903747 6.903377067137512 H 0.0 **** 0.06
19638 H 197.00939757920494 75.195014075821 8.44259359938809 H 0.0 **** 0.06
19639 H 195.75097210523145 73.97194121621874 8.139027022250843 H 0.0 **** 0.06
19640 H 195.29437457897592 75.67015609706732 8.41024161254174 H 0.0 **** 0.06
19641 C 98.15499514295973 77.00578931611925 120.80073715142464 C 0.0 **** -0.24
19642 H 98.50903183001475 77.86991579137101 121.36208029159218 H 0.0 **** 0.06
19643 H 97.38190436965002 77.31924459384233 120.09991612919987 H 0.0 **** 0.06
19644 H 97.74331158447546 76.26887153748513 121.49058026713698 H 0.0 **** 0.06
19645 H 98.9866843336359 76.5644986205078 120.2520156535283 H 0.0 **** 0.06
19646 C 26.075924076478685 143.4913352748878 52.00454738342147 C 0.0 **** -0.24
19647 H 25.949467120238594 142.66536334941551 51.304371186465005 H 0.0 **** 0.06
19648 H 25.709229854943644 144.41164588103914 51.54984592056593 H 0.0 **** 0.06
19649 H 27.132081682704026 143.6015830003528 52.24874241583498 H 0.0 **** 0.06
19650 H 25.511743893452206 143.28548947175915 52.915039526489664 H 0.0 **** 0.06
19651 C 94.60283391779521 145.01165760679032 149.47939412004996 C 0.0 **** -0.24
19652 H 95.47788207443543 145.65913781653666 149.43935975768048 H 0.0 **** 0.06
19653 H 93.6998698978141 145.61533481735128 149.38613912403224 H 0.0 **** 0.06
19654 H 94.58741688163838 144.48004615419256 150.43090200927145 H 0.0 **** 0.06
19655 H 94.64493183776042 144.2924494011009 148.66177624352974 H 0.0 **** 0.06
19656 C 76.0215162560159 102.40636945809183 124.78444540982497 C 0.0 **** -0.24
19657 H 75.90801386168363 101.7751715607809 123.90322687985048 H 0.0 **** 0.06
19658 H 75.45443072616612 101.98044426645544 125.61208144858253 H 0.0 **** 0.06
19659 H 75.64992284025156 103.40696000699211 124.56403315159167 H 0.0 **** 0.06
19660 H 77.07600369639921 102.46253415041002 125.05770075510748 H 0.0 **** 0.06
19661 C 171.27959318650983 106.46198549175207 58.65172234400799 C 0.0 **** -0.24
19662 H 170.64639409279744 106.51703218214203 57.76591849262813 H 0.0 **** 0.06
19663 H 172.27766862469687 106.13086429459966 58.364801004271555 H 0.0 **** 0.06
19664 H 170.8505750982834 105.75292134452391 59.36038461723484 H 0.0 **** 0.06
19665 H 171.3417572335502 107.44671636639256 59.11439869728706 H 0.0 **** 0.06
19666 C 85.01915809185806 145.52961906967448 28.623684454890366 C 0.0 **** -0.24
19667 H 85.40043872097937 145.8741123336252 29.584174497853382 H 0.0 **** 0.06
19668 H 85.45945550688725 146.1252732142023 27.823966372569373 H 0.0 **** 0.06
19669 H 83.93446671729873 145.6376534025602 28.603290855598402 H 0.0 **** 0.06
19670 H 85.28214599062193 144.48044886531522 28.483221067505326 H 0.0 **** 0.06
19671 C 31.964217093088166 198.25808047396757 97.73027366645667 C 0.0 **** -0.24
19672 H 32.09596635034765 198.95607743085665 96.90288857727478 H 0.0 **** 0.06
19673 H 32.47209398674096 198.6439467543155 98.61495778357647 H 0.0 **** 0.06
19674 H 32.387636356556186 197.29157207631164 97.46070125789413 H 0.0 **** 0.06
19675 H 30.90148623340275 198.14401345796273 97.94284955205651 H 0.0 **** 0.06
19676 C 166.3222182495307 172.1205157131271 42.877264400960456 C 0.0 **** -0.24
19677 H 166.28369474222666 173.1561498274625 43.21413023469974 H 0.0 **** 0.06
19678 H 166.88751337913567 172.06171026557587 41.94819875389409 H 0.0 **** 0.06
19679 H 165.30866490223607 171.75587065378355 42.71010496418229 H 0.0 **** 0.06
19680 H 166.80772068041125 171.50945576113122 43.63909367122015 H 0.0 **** 0.06
19681 C 97.35071078752111 157.24830573651303 42.17857963158406 C 0.0 **** -0.24
19682 H 97.54296377303393 157.0758792784871 41.11953874858057 H 0.0 **** 0.06
19683 H 96.60401026832267 158.0361114976207 42.28763073306777 H 0.0 **** 0.06
19684 H 98.27435800431093 157.55115687864122 42.67155395330002 H 0.0 **** 0.06
19685 H 96.97896756470121 156.32975500489084 42.63374359510209 H 0.0 **** 0.06
19686 C 74.14729854683708 61.4541814511702 181.19463349012605 C 0.0 **** -0.24
19687 H 74.15655465112962 62.460753129219995 180.77494969008808 H 0.0 **** 0.06
19688 H 73.16997023769346 61.00138287815821 181.03056493910617 H 0.0 **** 0.06
19689 H 74.3498371742229 61.50579817596915 182.26460615784683 H 0.0 **** 0.06
19690 H 74.91470216833727 60.85130075651284 180.70795777020578 H 0.0 **** 0.06
19691 C 118.30420045315017 114.16360685865678 149.99451254216655 C 0.0 **** -0.24
19692 H 117.57514081116344 113.44292251466766 149.62463311731528 H 0.0 **** 0.06
19693 H 117.78567665733979 114.98190232470952 150.49511248900205 H 0.0 **** 0.06
19694 H 118.88267883831747 114.55657629436664 149.1584979129629 H 0.0 **** 0.06
19695 H 118.97454081683864 113.67222548235173 150.70071920684634 H 0.0 **** 0.06
19696 C 133.39222091404665 141.09128557911797 28.85504931657738 C 0.0 **** -0.24
19697 H 133.69621330721785 141.59964994060468 27.940147147682865 H 0.0 **** 0.06
19698 H 132.96505467924752 141.8164346312963 29.54841110025839 H 0.0 **** 0.06
19699 H 134.25907647271563 140.61717218496423 29.31366089362038 H 0.0 **** 0.06
19700 H 132.64614885086587 140.3324096876256 28.61808612869561 H 0.0 **** 0.06
19701 C 36.78072518041756 103.44208544366086 92.58888062500858 C 0.0 **** -0.24
19702 H 37.331253205235896 104.15017277575652 91.97015379608547 H 0.0 **** 0.06
19703 H 37.467177041184925 102.68566309061987 92.97198739018353 H 0.0 **** 0.06
19704 H 36.0073878563887 102.96100589452513 91.98965066664593 H 0.0 **** 0.06
19705 H 36.31855411441012 103.970070934858 93.4228403985727 H 0.0 **** 0.06
19706 C 105.96809429693639 123.17376648839581 17.655501093812205 C 0.0 **** -0.24
19707 H 106.87550699016302 123.74716475086097 17.464115790186824 H 0.0 **** 0.06
19708 H 106.23212846255103 122.13945601983562 17.877569803922412 H 0.0 **** 0.06
19709 H 105.32722047265918 123.20467207908541 16.773958534965033 H 0.0 **** 0.06
19710 H 105.4391533082399 123.6048367796455 18.50487527153352 H 0.0 **** 0.06
19711 C 137.92212886358706 10.727531794916331 144.52924865251555 C 0.0 **** -0.24
19712 H 137.70782492304187 9.66908851305459 144.38136247193324 H 0.0 **** 0.06
19713 H 137.77691073418592 11.260778798046573 143.58937471094453 H 0.0 **** 0.06
19714 H 138.9536196414387 10.846465905738853 144.8599692622331 H 0.0 **** 0.06
19715 H 137.24934929397443 11.132297632956863 145.2848377828293 H 0.0 **** 0.06
19716 C 174.84655598678202 60.16765837264201 160.23300950674144 C 0.0 **** -0.24
19717 H 174.96230347152493 59.109948304395814 160.47325032699953 H 0.0 **** 0.06
19718 H 173.79896200580447 60.45109518307157 160.3359177855419 H 0.0 **** 0.06
19719 H 175.17251607894386 60.34454698282268 159.20748956805926 H 0.0 **** 0.06
19720 H 175.45420400377515 60.762839102629925 160.91436070845361 H 0.0 **** 0.06
19721 C 81.28960366768328 31.026141984553064 2.373701628787501 C 0.0 **** -0.24
19722 H 81.51606869582628 32.09064455483487 2.4368487468638875 H 0.0 **** 0.06
19723 H 81.06075772232765 30.76378764470948 1.3397178455521441 H 0.0 **** 0.06
19724 H 80.4302118149457 30.799241302679334 3.0045299760930675 H 0.0 **** 0.06
19725 H 82.15081653142272 30.450851265583452 2.712882503006483 H 0.0 **** 0.06
19726 C 123.91910527847361 93.64675092577278 176.087057780451 C 0.0 **** -0.24
19727 H 123.01109231455783 94.23038750608188 175.93537890147272 H 0.0 **** 0.06
19728 H 124.6556211020249 94.25064934248951 176.6175196883345 H 0.0 **** 0.06
19729 H 124.32410131457911 93.34749512248754 175.1197528222365 H 0.0 **** 0.06
19730 H 123.68688836997526 92.75829923135589 176.67442783429985 H 0.0 **** 0.06
19731 C 132.22995426208317 101.00949860021638 190.16873976627303 C 0.0 **** -0.24
19732 H 132.70799313048772 101.19572049033633 189.20761755474894 H 0.0 **** 0.06
19733 H 132.60732090737912 101.71784602793386 190.90620299727843 H 0.0 **** 0.06
19734 H 132.45268853055697 99.99271613461997 190.49435084626592 H 0.0 **** 0.06
19735 H 131.15111924525837 101.13025047199511 190.06740523148423 H 0.0 **** 0.06
19736 C 147.74702059516005 156.279057152761 15.631793406753275 C 0.0 **** -0.24
19737 H 148.38664164992005 155.43614900534934 15.892428077334898 H 0.0 **** 0.06
19738 H 147.5555574422561 156.27089118754918 14.558237686184327 H 0.0 **** 0.06
19739 H 148.2434924591287 157.20990172663915 15.905352802806874 H 0.0 **** 0.06
19740 H 146.80276453265367 156.1989935338687 16.169489386865507 H 0.0 **** 0.06
19741 C 89.24498885834771 103.4857966234739 81.64608061983358 C 0.0 **** -0.24
19742 H 89.07383022000602 104.56005232946205 81.70220588810821 H 0.0 **** 0.06
19743 H 88.60392737270752 102.97781196805227 82.36616008162366 H 0.0 **** 0.06
19744 H 90.28951986415382 103.27238841796557 81.8754593935995 H 0.0 **** 0.06
19745 H 89.01502071113111 103.13345752350833 80.64098436884973 H 0.0 **** 0.06
19746 C 39.48934316776655 176.39755442570737 184.61819375451574 C 0.0 **** -0.24
19747 H 38.5946355389118 175.83310038510643 184.3568346864165 H 0.0 **** 0.06
19748 H 39.219091516823994 177.43278372624334 184.82554614726365 H 0.0 **** 0.06
19749 H 40.19459688491074 176.36528560290105 183.7872944734172 H 0.0 **** 0.06
19750 H 39.95043342275642 175.95736553589975 185.50259762710834 H 0.0 **** 0.06
19751 C 11.038696648308985 95.3098865843518 26.38885227940311 C 0.0 **** -0.24
19752 H 10.344950880526113 96.07279064395843 26.03572781734664 H 0.0 **** 0.06
19753 H 10.762407586154268 94.34470572023272 25.96533732321086 H 0.0 **** 0.06
19754 H 10.996123067564326 95.25585381172976 27.476664134124448 H 0.0 **** 0.06
19755 H 12.05086670330843 95.56838955732533 26.0766813497212 H 0.0 **** 0.06
19756 C 46.543877748354134 28.130180032491097 115.89077240749805 C 0.0 **** -0.24
19757 H 45.740594591911986 28.779502125660983 115.54379019692851 H 0.0 **** 0.06
19758 H 47.504970071064804 28.609417632713942 115.70222912419638 H 0.0 **** 0.06
19759 H 46.499292532659155 27.180722691782478 115.35664263572932 H 0.0 **** 0.06
19760 H 46.43006733584264 27.951005446284668 116.95914280429378 H 0.0 **** 0.06
19761 C 5.387538583631056 13.470062189116163 21.878094381488893 C 0.0 **** -0.24
19762 H 4.401483516941084 13.398932524591487 21.419751011996937 H 0.0 **** 0.06
19763 H 6.041629958539659 12.708480749354578 21.452453822008067 H 0.0 **** 0.06
19764 H 5.3006359173382975 13.31515365220966 22.953329678986904 H 0.0 **** 0.06
19765 H 5.807040005008503 14.457817236137203 21.685586667829767 H 0.0 **** 0.06
19766 C 58.50497209019335 34.844474517343656 195.7957190784572 C 0.0 **** -0.24
19767 H 59.40188297894281 34.28209966162781 195.53593250484482 H 0.0 **** 0.06
19768 H 58.11929965261555 35.34562534045213 194.90684768928844 H 0.0 **** 0.06
19769 H 58.74939271667694 35.58772620984105 196.55476529964426 H 0.0 **** 0.06
19770 H 57.748450546284175 34.16213610904475 196.18493130909528 H 0.0 **** 0.06
19771 C 157.68840867734792 143.09185841859457 106.69272077120024 C 0.0 **** -0.24
19772 H 156.7039853984321 143.1728652573605 107.1545220269744 H 0.0 **** 0.06
19773 H 158.15765486186 144.07546733694542 106.66366555677172 H 0.0 **** 0.06
19774 H 157.5817609781118 142.70945371885853 105.67740820647896 H 0.0 **** 0.06
19775 H 158.307117335219 142.4093455669576 107.27573320293538 H 0.0 **** 0.06
19776 C 92.6814403205498 176.58528865568084 9.346781529705709 C 0.0 **** -0.24
19777 H 91.7242702820374 176.06363141313815 9.355083745888408 H 0.0 **** 0.06
19778 H 92.80211805578855 177.13731934091757 10.279467818305022 H 0.0 **** 0.06
19779 H 92.70948708770217 177.27976175360493 8.50723273806571 H 0.0 **** 0.06
19780 H 93.48903744708988 175.86157244326048 9.245290801064726 H 0.0 **** 0.06
19781 C 19.62661846429907 46.90295094742061 33.72497172127888 C 0.0 **** -0.24
19782 H 20.49005446906409 47.40540819250063 34.16163598240942 H 0.0 **** 0.06
19783 H 18.716041151805968 47.42327147316763 34.02118985134368 H 0.0 **** 0.06
19784 H 19.589329589427848 45.873167971521696 34.081156024480435 H 0.0 **** 0.06
19785 H 19.712676814569505 46.908956027715874 32.63912203218206 H 0.0 **** 0.06
19786 C 160.26263916769017 51.00717571407796 24.013827252922837 C 0.0 **** -0.24
19787 H 159.5791883475058 51.56463825648413 23.372544012534618 H 0.0 **** 0.06
19788 H 161.27981363231146 51.366570586003235 23.859781465219 H 0.0 **** 0.06
19789 H 160.2083853857468 49.94726068849934 23.766232142677197 H 0.0 **** 0.06
19790 H 159.97907014795868 51.151327275593104 25.056775304661983 H 0.0 **** 0.06
19791 C 78.27436785171213 184.73811927164053 99.16026980162144 C 0.0 **** -0.24
19792 H 77.91196339790935 184.95621270150377 100.1648716882303 H 0.0 **** 0.06
19793 H 79.02500312625469 185.47598237691346 98.87652447319167 H 0.0 **** 0.06
19794 H 77.4417243897685 184.77753527177373 98.45835035154843 H 0.0 **** 0.06
19795 H 78.71732284515846 183.7426753671791 99.14330000110533 H 0.0 **** 0.06
19796 C 111.56734549437351 87.44942042680427 57.017102641913226 C 0.0 **** -0.24
19797 H 110.82478265127241 86.96378566159683 56.38446058855263 H 0.0 **** 0.06
19798 H 112.56578847181527 87.22687146187715 56.64113555012143 H 0.0 **** 0.06
19799 H 111.47257104025209 87.07832147346195 58.03765301036563 H 0.0 **** 0.06
19800 H 111.40634079108668 88.52730155648027 57.00617409598149 H 0.0 **** 0.06
19801 C 149.22684829049464 193.97556818483127 44.086552806002416 C 0.0 **** -0.24
19802 H 149.8281350394272 193.66184586989309 43.23202704164325 H 0.0 **** 0.06
19803 H 149.0965504746545 195.0575163712634 44.0611503206608 H 0.0 **** 0.06
19804 H 149.73219457465098 193.69124275918418 45.008891053218974 H 0.0 **** 0.06
19805 H 148.25215286369178 193.48963124456114 44.041466228506366 H 0.0 **** 0.06
19806 C 147.88639338633254 163.86449545600746 188.76977833253716 C 0.0 **** -0.24
19807 H 147.9677865829109 164.94967282369367 188.70577899280758 H 0.0 **** 0.06
19808 H 148.84070643730274 163.4487141355973 189.09410408115585 H 0.0 **** 0.06
19809 H 147.62802771147432 163.46153877012233 187.79103181406904 H 0.0 **** 0.06
19810 H 147.11192147204832 163.5998284717648 189.48899200219228 H 0.0 **** 0.06
19811 C 51.16060805755197 71.05595665687991 7.709476168108466 C 0.0 **** -0.24
19812 H 50.13737173023138 71.2881686498071 7.413436134768233 H 0.0 **** 0.06
19813 H 51.33498427429649 71.41319583478011 8.724682452284242 H 0.0 **** 0.06
19814 H 51.85581717082718 71.54409469111803 7.027733406365485 H 0.0 **** 0.06
19815 H 51.312567990766766 69.97742755661227 7.672559616617946 H 0.0 **** 0.06
19816 C 86.06746488192724 85.71008420039823 73.0140575745825 C 0.0 **** -0.24
19817 H 85.59179583567646 86.25679783493956 73.82783262157827 H 0.0 **** 0.06
19818 H 85.43655551785312 84.86896785859159 72.72436224278115 H 0.0 **** 0.06
19819 H 87.0373429138993 85.33942667862675 73.3451969385549 H 0.0 **** 0.06
19820 H 86.20346147164543 86.37370029771523 72.16068762895175 H 0.0 **** 0.06
19821 C 49.635246348769385 117.15870642441189 197.30867781219627 C 0.0 **** -0.24
19822 H 50.424576827539056 117.18970068340485 196.5584375794998 H 0.0 **** 0.06
19823 H 49.5216760952834 116.13792218828485 197.67499467559907 H 0.0 **** 0.06
19824 H 48.696859886811296 117.49122031333025 196.86312525915758 H 0.0 **** 0.06
19825 H 49.89664380548061 117.81533517736966 198.13842038054656 H 0.0 **** 0.06
19826 C 162.81611201002102 124.7924229840238 115.81440692155627 C 0.0 **** -0.24
19827 H 162.96992756418996 124.38346642778819 114.8155060226527 H 0.0 **** 0.06
19828 H 163.67820687302043 124.55890304285461 116.43924735554839 H 0.0 **** 0.06
19829 H 161.91985424834195 124.35389887615852 116.2521194913025 H 0.0 **** 0.06
19830 H 162.6966480799722 125.87429765243746 115.74965917099303 H 0.0 **** 0.06
19831 C 181.6519808362077 80.15325547017551 4.073544157503839 C 0.0 **** -0.24
19832 H 182.67289330491485 80.20058179957351 3.6945472802734827 H 0.0 **** 0.06
19833 H 180.99909681702871 79.73853893852245 3.3062636914011847 H 0.0 **** 0.06
19834 H 181.31540553512625 81.15683017423183 4.335417375516926 H 0.0 **** 0.06
19835 H 181.62312888706862 79.51847244305853 4.958467730051055 H 0.0 **** 0.06
19836 C 185.94801274725467 45.85619771764736 46.21804766539606 C 0.0 **** -0.24
19837 H 185.51761161674318 46.000161180345714 45.22703552116013 H 0.0 **** 0.06
19838 H 185.15641407591062 45.60394884876497 46.924245762849296 H 0.0 **** 0.06
19839 H 186.43994521757048 46.77532829877343 46.536972594922645 H 0.0 **** 0.06
19840 H 186.67702964876378 45.04704408280058 46.18374869936292 H 0.0 **** 0.06
19841 C 181.2702906691423 115.55635111656673 1.4265101795739952 C 0.0 **** -0.24
19842 H 181.08089817720307 115.51383051940877 0.35349378386638364 H 0.0 **** 0.06
19843 H 180.96565542126692 114.61624137996924 1.886555540870802 H 0.0 **** 0.06
19844 H 180.7019395188335 116.37695449127952 1.8629167868962782 H 0.0 **** 0.06
19845 H 182.33430057293887 115.71764714714428 1.6002807248182194 H 0.0 **** 0.06
19846 C 198.82052906656804 136.37337042662884 172.6386032855691 C 0.0 **** -0.24
19847 H 198.6388051609864 136.16092997447848 173.69197983329343 H 0.0 **** 0.06
19848 H 199.84504367041723 136.10164163795105 172.3855124684921 H 0.0 **** 0.06
19849 H 198.6690722043004 137.4361866098506 172.45156786415458 H 0.0 **** 0.06
19850 H 198.1280078898543 135.79440306378874 172.02722050434153 H 0.0 **** 0.06
19851 C 124.13235796776084 128.32925980574646 12.604528252460767 C 0.0 **** -0.24
19852 H 123.3584929200878 128.6736003199636 11.919230391457823 H 0.0 **** 0.06
19853 H 123.71888317874252 128.25250787312598 13.61061842880364 H 0.0 **** 0.06
19854 H 124.95974668741403 129.03932149485559 12.604556491233481 H 0.0 **** 0.06
19855 H 124.49230908479905 127.3516095350409 12.283707698348223 H 0.0 **** 0.06
19856 C 170.00740433098423 106.42890029604433 14.144606012860919 C 0.0 **** -0.24
19857 H 170.52211485080858 105.99501633588551 13.287262747433942 H 0.0 **** 0.06
19858 H 169.7228005560842 107.45621911520286 13.916624822860285 H 0.0 **** 0.06
19859 H 170.67093462766715 106.4179150184136 15.009313218566263 H 0.0 **** 0.06
19860 H 169.11373803736552 105.84425850344621 14.365663106112834 H 0.0 **** 0.06
19861 C 182.65769700817822 20.12037231174952 17.364838817967666 C 0.0 **** -0.24
19862 H 182.94484430284234 19.718210434071068 16.39312695515349 H 0.0 **** 0.06
19863 H 182.00537176390048 19.409477891411086 17.872622822255778 H 0.0 **** 0.06
19864 H 182.13032328609907 21.063256059692492 17.225139689581823 H 0.0 **** 0.06
19865 H 183.55113972616317 20.288345671629884 17.966630105135664 H 0.0 **** 0.06
19866 C 131.99320285129045 142.29413007280354 46.7903939576442 C 0.0 **** -0.24
19867 H 132.7377554713927 142.04913360502596 46.03294771591686 H 0.0 **** 0.06
19868 H 131.70943579812354 141.38812522652603 47.32627096750646 H 0.0 **** 0.06
19869 H 131.11388286991098 142.72316043266432 46.30883188881026 H 0.0 **** 0.06
19870 H 132.41257563844215 143.0159587778846 47.49122808048908 H 0.0 **** 0.06
19871 C 116.37285165383852 14.97060941057839 60.22947392537657 C 0.0 **** -0.24
19872 H 115.46260981858075 15.24257125322788 60.76260731418442 H 0.0 **** 0.06
19873 H 116.86048523837252 14.14062206281153 60.74271287056885 H 0.0 **** 0.06
19874 H 117.04713476718027 15.827353231952856 60.200855402342796 H 0.0 **** 0.06
19875 H 116.12197128236383 14.670721266833482 59.211701929085464 H 0.0 **** 0.06
19876 C 59.81705342550481 129.12405141202072 159.5560755817054 C 0.0 **** -0.24
19877 H 59.4231247336744 128.11437887027841 159.67599741432844 H 0.0 **** 0.06
19878 H 60.649345807015095 129.10791968000746 158.85273012476353 H 0.0 **** 0.06
19879 H 60.162574147453824 129.4955985608151 160.52041982205844 H 0.0 **** 0.06
19880 H 59.03061486159697 129.7767805796974 159.1755315917755 H 0.0 **** 0.06
19881 C 161.35513224059454 188.9322430097038 97.70413767061493 C 0.0 **** -0.24
19882 H 160.77094171135437 188.82508297759858 96.79023787706893 H 0.0 **** 0.06
19883 H 162.13678255310705 189.67697077924197 97.55179911434666 H 0.0 **** 0.06
19884 H 161.80951223078867 187.97485235586947 97.95876413873418 H 0.0 **** 0.06
19885 H 160.70214432365594 189.25207693982412 98.51657519660307 H 0.0 **** 0.06
19886 C 104.66960225350078 120.37802101118183 58.13208487672 C 0.0 **** -0.24
19887 H 105.18219265156415 120.73921796970632 57.24027349937769 H 0.0 **** 0.06
19888 H 104.12600952553419 119.4636765272096 57.89257535716216 H 0.0 **** 0.06
19889 H 103.96882873539829 121.13734616549448 58.47952908029852 H 0.0 **** 0.06
19890 H 105.40112914181691 120.172824016437 58.913730761780954 H 0.0 **** 0.06
19891 C 168.10487285828947 92.6675092228352 124.30158277904468 C 0.0 **** -0.24
19892 H 167.49694565941246 92.18835084677778 123.53482112637138 H 0.0 **** 0.06
19893 H 168.74543053549158 91.92274548492455 124.7747048932759 H 0.0 **** 0.06
19894 H 167.45500213175936 93.1181553239619 125.05186260529436 H 0.0 **** 0.06
19895 H 168.72298357434363 93.44042035254657 123.84461208596838 H 0.0 **** 0.06
19896 C 121.0749217914335 178.81020198274345 6.8783398552587585 C 0.0 **** -0.24
19897 H 120.77592914948934 178.046976671682 7.597340010727862 H 0.0 **** 0.06
19898 H 121.66445349590248 178.34962868241394 6.0853983101836775 H 0.0 **** 0.06
19899 H 121.67230414017683 179.57013352990566 7.382048158715662 H 0.0 **** 0.06
19900 H 120.18574720986919 179.27259645127805 6.449695943729125 H 0.0 **** 0.06
19901 C 190.0269635687489 11.96913385654885 54.88160802235058 C 0.0 **** -0.24
19902 H 190.83092725456981 11.591460500782887 55.512474003717614 H 0.0 **** 0.06
19903 H 190.25312044195041 12.991386124150623 54.57775104860377 H 0.0 **** 0.06
19904 H 189.08986103774734 11.953608360767483 55.437775694500544 H 0.0 **** 0.06
19905 H 189.93413928158614 11.339197500741797 53.99615471973638 H 0.0 **** 0.06
19906 C 91.94237757604893 190.35905355198275 149.176999933866 C 0.0 **** -0.24
19907 H 92.55308525622496 189.64862910617776 149.73469243979346 H 0.0 **** 0.06
19908 H 90.94742827705596 190.40788979818933 149.61986063771278 H 0.0 **** 0.06
19909 H 91.86375390054002 190.0343491938057 148.1397125732614 H 0.0 **** 0.06
19910 H 92.4062349140618 191.34518838699154 149.21573185368575 H 0.0 **** 0.06
19911 C 97.59602077310262 115.15459661716577 78.29280048162495 C 0.0 **** -0.24
19912 H 96.70151218430749 115.01826353312268 77.68475495318494 H 0.0 **** 0.06
19913 H 98.1872841308425 115.9764696181391 77.88804115610507 H 0.0 **** 0.06
19914 H 98.18698690339977 114.23926423014407 78.27847153661928 H 0.0 **** 0.06
19915 H 97.306955856787 115.38441322071873 79.3178865585925 H 0.0 **** 0.06
19916 C 50.712639748612304 97.01104327821798 151.7782326829832 C 0.0 **** -0.24
19917 H 50.740423044669484 96.18844678090869 151.0637092258579 H 0.0 **** 0.06
19918 H 49.755684209858686 97.52594476578304 151.70124431078025 H 0.0 **** 0.06
19919 H 51.52096678457485 97.70921214194917 151.55887147094728 H 0.0 **** 0.06
19920 H 50.836284265166114 96.61907018996752 152.78814843706562 H 0.0 **** 0.06
19921 C 181.50990853163916 52.35740036785026 161.95993290969844 C 0.0 **** -0.24
19922 H 180.44991267557603 52.12792972507546 162.0627125948091 H 0.0 **** 0.06
19923 H 181.90106435486163 51.87333987976467 161.06479813851809 H 0.0 **** 0.06
19924 H 182.04663474698464 51.99198020618604 162.83512360088915 H 0.0 **** 0.06
19925 H 181.64202234913407 53.436351660374726 161.87709730457738 H 0.0 **** 0.06
19926 C 161.62266923291008 91.73352681758172 144.9515247558306 C 0.0 **** -0.24
19927 H 162.47833649351998 91.40330987192826 144.36294512640583 H 0.0 **** 0.06
19928 H 161.576962913005 91.16170556073868 145.87750857348664 H 0.0 **** 0.06
19929 H 160.70679551070134 91.57607478533424 144.38095408724172 H 0.0 **** 0.06
19930 H 161.72853049410543 92.79329803511462 145.1822584345048 H 0.0 **** 0.06
19931 C 60.23001169786471 113.75972733656806 199.23318168148853 C 0.0 **** -0.24
19932 H 60.22982223917299 112.7758077049807 198.76499604781083 H 0.0 **** 0.06
19933 H 59.22775395027436 114.18594331936157 199.18416090886495 H 0.0 **** 0.06
19934 H 60.928765149846214 114.41183269123565 198.70818461093808 H 0.0 **** 0.06
19935 H 60.533991483155276 113.66623307655334 200.27569297306115 H 0.0 **** 0.06
19936 C 26.5631386184117 186.96752027768554 101.94977818902834 C 0.0 **** -0.24
19937 H 26.45290412979145 187.88502832333717 101.37242300464973 H 0.0 **** 0.06
19938 H 25.609429740040696 186.71555401098908 102.41610651771921 H 0.0 **** 0.06
19939 H 27.31879392190342 187.11312156185448 102.72236089154495 H 0.0 **** 0.06
19940 H 26.869930401897903 186.15651504043785 101.28908386120716 H 0.0 **** 0.06
19941 C 100.34334814383158 157.6637144035029 107.09701084140409 C 0.0 **** -0.24
19942 H 101.37542636098925 158.0144302884764 107.0999444485397 H 0.0 **** 0.06
19943 H 99.81305846537839 158.1030516228584 106.25106617142899 H 0.0 **** 0.06
19944 H 99.85643317772383 157.9609815001195 108.02572649673357 H 0.0 **** 0.06
19945 H 100.32960429806451 156.57717281099804 107.01096342327344 H 0.0 **** 0.06
19946 C 135.2791756374598 176.74727378098333 34.626212955040415 C 0.0 **** -0.24
19947 H 134.4520936739731 177.45420991189937 34.56231138551101 H 0.0 **** 0.06
19948 H 136.2170827790512 177.29515220234532 34.72261904307976 H 0.0 **** 0.06
19949 H 135.30493441643168 176.1358270113659 33.72481293680346 H 0.0 **** 0.06
19950 H 135.14203390168552 176.1060826245968 35.49709626148285 H 0.0 **** 0.06
19951 C 61.292494355525946 59.151055703797226 146.69665810360024 C 0.0 **** -0.24
19952 H 62.303549336386084 59.54635715912735 146.79412227702812 H 0.0 **** 0.06
19953 H 60.71987042172577 59.39446215464079 147.5915490520989 H 0.0 **** 0.06
19954 H 61.335850793552595 58.06888908825397 146.57533906654857 H 0.0 **** 0.06
19955 H 60.81149860929156 59.59503480662636 145.82530207833443 H 0.0 **** 0.06
19956 C 99.7520712249028 70.57257507182868 33.145117641102445 C 0.0 **** -0.24
19957 H 100.2105903335343 71.1752686157968 32.36026260281511 H 0.0 **** 0.06
19958 H 100.42123431866037 70.52667795787318 34.004878603370116 H 0.0 **** 0.06
19959 H 99.57146895994026 69.56447965696981 32.77035082671041 H 0.0 **** 0.06
19960 H 98.80646360280616 71.02374913617274 33.4433002018321 H 0.0 **** 0.06
19961 C 118.03451771482412 82.3460905659833 85.09454408392224 C 0.0 **** -0.24
19962 H 118.57325434761009 83.0532674323517 84.46424305109335 H 0.0 **** 0.06
19963 H 117.37968783743662 82.8905123590859 85.77411336047629 H 0.0 **** 0.06
19964 H 118.747906343002 81.75695577666772 85.67010340283349 H 0.0 **** 0.06
19965 H 117.43798120139877 81.68345453402688 84.46739389214852 H 0.0 **** 0.06
19966 C 14.163814184499472 141.94034562550831 92.15311591355317 C 0.0 **** -0.24
19967 H 13.980792688148227 142.81893402398984 91.53287943960697 H 0.0 **** 0.06
19968 H 13.493117319399403 141.9567506318732 93.01195889388703 H 0.0 **** 0.06
19969 H 15.198135118143597 141.94812391039682 92.4973692985476 H 0.0 **** 0.06
19970 H 13.982943442005052 141.03941300503112 91.56700852904765 H 0.0 **** 0.06
19971 C 43.950245419137886 57.27234438544241 164.69308372743606 C 0.0 **** -0.24
19972 H 43.01669088200197 56.96888479004366 165.16672059156423 H 0.0 **** 0.06
19973 H 44.32538208696943 58.17468166500794 165.17536226145742 H 0.0 **** 0.06
19974 H 43.773317178948744 57.470859903198004 163.6356506628357 H 0.0 **** 0.06
19975 H 44.68471996088769 56.47384287906419 164.79471127625425 H 0.0 **** 0.06
19976 C 56.57571933023081 137.6862023174282 21.334932323755623 C 0.0 **** -0.24
19977 H 56.483417345869896 138.58497640404352 21.94405969221036 H 0.0 **** 0.06
19978 H 57.31127095915656 137.8553348792168 20.547792130094166 H 0.0 **** 0.06
19979 H 55.611054584405906 137.4507421283313 20.88584313309576 H 0.0 **** 0.06
19980 H 56.89745111459774 136.8543657285214 21.96079829223703 H 0.0 **** 0.06
19981 C 87.2784484237485 138.3449495889273 75.83979745026254 C 0.0 **** -0.24
19982 H 87.58249199691295 138.34529007515533 74.79298702075927 H 0.0 **** 0.06
19983 H 86.20140840252827 138.4989494436071 75.9043305062754 H 0.0 **** 0.06
19984 H 87.79336264185895 139.14791581811824 76.36809971638799 H 0.0 **** 0.06
19985 H 87.5375922981977 137.3880173821625 76.29291651657961 H 0.0 **** 0.06
19986 C 27.857462512593656 59.570567429801486 15.49077778210841 C 0.0 **** -0.24
19987 H 27.87880151110869 59.35227542300407 16.558291210769028 H 0.0 **** 0.06
19988 H 26.834730073066225 59.79543378787241 15.186963403517666 H 0.0 **** 0.06
19989 H 28.220935677752493 58.70618275046843 14.936109375442129 H 0.0 **** 0.06
19990 H 28.495545066262366 60.42998085796836 15.283592095521499 H 0.0 **** 0.06
19991 C 166.46610031376196 35.008502671018334 158.44085992235443 C 0.0 **** -0.24
19992 H 167.27276792320902 35.17506969467422 159.15494218836955 H 0.0 **** 0.06
19993 H 165.6966984975328 34.38827109518547 158.9020576535457 H 0.0 **** 0.06
19994 H 166.85936512123186 34.50409832789467 157.5589791458809 H 0.0 **** 0.06
19995 H 166.03442783007404 35.96666506649689 158.15057319237889 H 0.0 **** 0.06
19996 C 156.89320612545492 185.4674587838478 52.831277577541755 C 0.0 **** -0.24
19997 H 156.50132473623358 185.7335325471082 51.849671033333465 H 0.0 **** 0.06
19998 H 157.87432939943434 185.00567877856247 52.7169314015718 H 0.0 **** 0.06
19999 H 156.21420705144578 184.76448561882566 53.31416853356677 H 0.0 **** 0.06
20000 H 156.98274692969147 186.3648869595192 53.44224465143844 H 0.0 **** 0.06
20001 C 34.92925706971771 77.2073475101701 70.08830817994007 C 0.0 **** -0.24
20002 H 35.04387792815213 78.18653276777087 70.55375955539851 H 0.0 **** 0.06
20003 H 34.453096265671164 77.32188482168863 69.1151757388538 H 0.0 **** 0.06
20004 H 34.30952805852549 76.57437702634446 70.72385834573753 H 0.0 **** 0.06
20005 H 35.9095184829776 76.74764327296255 69.96306340157713 H 0.0 **** 0.06
20006 C 122.36731946506788 0.5932436204622888 72.01970597404562 C 0.0 **** -0.24
20007 H 122.64227144306452 -0.4423587574663941 71.81750601012858 H 0.0 **** 0.06
20008 H 122.93850893190543 0.9612421794179795 72.87246112797222 H 0.0 **** 0.06
20009 H 121.30130217473595 0.6481817405261268 72.24403309518569 H 0.0 **** 0.06
20010 H 122.58650246526292 1.2048863653018316 71.14413549606172 H 0.0 **** 0.06
20011 C 18.04850120891615 23.399061047038174 162.95746694027025 C 0.0 **** -0.24
20012 H 18.302968389303715 24.04789240406751 163.79508916433264 H 0.0 **** 0.06
20013 H 17.961271714395707 22.371019463446146 163.3080224767369 H 0.0 **** 0.06
20014 H 18.82947161239389 23.460953892823454 162.19985940434577 H 0.0 **** 0.06
20015 H 17.09954008075036 23.717537510503234 162.52719588633744 H 0.0 **** 0.06
20016 C 180.36961820404713 64.29517607858418 62.34209153942743 C 0.0 **** -0.24
20017 H 180.3559326948211 65.06133197894007 63.11847325319923 H 0.0 **** 0.06
20018 H 181.3821292258934 63.905236629836 62.23483319253671 H 0.0 **** 0.06
20019 H 180.04434859820057 64.72997396759615 61.39728566057954 H 0.0 **** 0.06
20020 H 179.69473836962223 63.48532302751016 62.62040061537266 H 0.0 **** 0.06
20021 C 115.57513627406723 103.72371888730578 50.04374888481257 C 0.0 **** -0.24
20022 H 114.55043534914324 103.88462706997703 49.70957491490742 H 0.0 **** 0.06
20023 H 115.82674252979601 102.66745310789253 49.94814774188956 H 0.0 **** 0.06
20024 H 115.66884131370759 104.02766867483538 51.08596026391376 H 0.0 **** 0.06
20025 H 116.25456551985488 104.31683907174514 49.43028000626788 H 0.0 **** 0.06
20026 C 3.294879989728784 84.29652731265736 34.115887129122115 C 0.0 **** -0.24
20027 H 3.6683256554107686 84.0556302216279 33.12042260639345 H 0.0 **** 0.06
20028 H 4.0994581373235945 84.72763913298002 34.71146355668773 H 0.0 **** 0.06
20029 H 2.9322075412798227 83.3876192117425 34.596228099068185 H 0.0 **** 0.06
20030 H 2.4782144766241885 85.01378325340829 34.03315236885797 H 0.0 **** 0.06
20031 C 12.40301417198404 193.33349829601855 133.31484882417507 C 0.0 **** -0.24
20032 H 11.44082490301551 193.05113703264269 132.8875660020797 H 0.0 **** 0.06
20033 H 12.440124305789197 193.0263142597189 134.36015284434168 H 0.0 **** 0.06
20034 H 12.527401174311478 194.41419131164687 133.24789991422762 H 0.0 **** 0.06
20035 H 13.202860555694883 192.84022228744237 132.7629075086485 H 0.0 **** 0.06
20036 C 86.84322495157613 175.15783152867806 136.06961304681033 C 0.0 **** -0.24
20037 H 85.92557435273565 174.8153294365473 136.54581083719677 H 0.0 **** 0.06
20038 H 87.53785679223793 175.5120741300341 136.83177870128003 H 0.0 **** 0.06
20039 H 86.61408702491042 175.97158245461804 135.38044618980518 H 0.0 **** 0.06
20040 H 87.29605463390828 174.33327713912115 135.5195984961589 H 0.0 **** 0.06
20041 C 174.04944853316368 149.95404587681583 88.20083595645838 C 0.0 **** -0.24
20042 H 174.7376622345632 149.78043499492674 87.37292541220961 H 0.0 **** 0.06
20043 H 173.17321236444278 149.31673952479449 88.08355652936962 H 0.0 **** 0.06
20044 H 173.74087572578213 150.9992847588822 88.20311117305232 H 0.0 **** 0.06
20045 H 174.5467678674078 149.72049865619283 89.14154251522388 H 0.0 **** 0.06
20046 C 42.690206512434145 146.32935268027427 99.35987105635138 C 0.0 **** -0.24
20047 H 41.61164028905131 146.27328362386558 99.51451546753782 H 0.0 **** 0.06
20048 H 43.09933504807748 145.32145266923385 99.29211350528487 H 0.0 **** 0.06
20049 H 43.14929190018495 146.85350084729018 100.19752788807159 H 0.0 **** 0.06
20050 H 42.89650965349148 146.8688795310035 98.436047235476 H 0.0 **** 0.06
20051 C 121.7049228689477 176.5083673648765 147.11827085930136 C 0.0 **** -0.24
20052 H 121.37024687915604 175.96386405072337 148.00102609005648 H 0.0 **** 0.06
20053 H 121.13910796141053 177.43627094502867 147.0273525051582 H 0.0 **** 0.06
20054 H 121.54331960477671 175.89611057506116 146.23113237619148 H 0.0 **** 0.06
20055 H 122.76566110891244 176.73741871327508 147.2139239816691 H 0.0 **** 0.06
20056 C 167.22722957642884 110.94660175883752 54.893051017642705 C 0.0 **** -0.24
20057 H 167.57272745496164 110.86307564433372 53.86211488497344 H 0.0 **** 0.06
20058 H 167.40243720849764 110.00362284453479 55.411728907236636 H 0.0 **** 0.06
20059 H 166.1613298424816 111.17264255850714 54.901416374414566 H 0.0 **** 0.06
20060 H 167.7725241837735 111.74495632502175 55.396209497135885 H 0.0 **** 0.06
20061 C 174.7440410874531 187.55496952876996 59.67522801547494 C 0.0 **** -0.24
20062 H 174.12210920596763 188.39570221415622 59.98221981329988 H 0.0 **** 0.06
20063 H 174.5040517595426 187.28150562840744 58.647895891356825 H 0.0 **** 0.06
20064 H 174.55374608480153 186.7044950596424 60.330866406128905 H 0.0 **** 0.06
20065 H 175.79481734767072 187.83682915008163 59.74098577390748 H 0.0 **** 0.06
20066 C 92.55688099707587 192.56034353547352 163.2304411245626 C 0.0 **** -0.24
20067 H 92.09160030766319 192.90605587313655 162.30783366597302 H 0.0 **** 0.06
20068 H 92.03640389038185 191.6719677941178 163.58890565108456 H 0.0 **** 0.06
20069 H 92.4977268545098 193.34601195970066 163.98420276781155 H 0.0 **** 0.06
20070 H 93.60300577369799 192.31703408144045 163.04148300976868 H 0.0 **** 0.06
20071 C 53.549494720309326 121.26825336816691 198.18727170334085 C 0.0 **** -0.24
20072 H 53.79864317585276 120.83159925222918 197.22003444365623 H 0.0 **** 0.06
20073 H 53.33302547237855 120.47191211632975 198.89984687295106 H 0.0 **** 0.06
20074 H 52.67473927720556 121.90938845007742 198.0814303606645 H 0.0 **** 0.06
20075 H 54.391994758544826 121.85931451762897 198.54668802272204 H 0.0 **** 0.06
20076 C 24.441895352925997 163.1293598706187 139.40435004623714 C 0.0 **** -0.24
20077 H 23.55237095207906 163.24850583699114 140.02273605504732 H 0.0 **** 0.06
20078 H 24.738736447135494 162.08023789193376 139.3941452589743 H 0.0 **** 0.06
20079 H 25.251403999027787 163.7328848289436 139.81256202233232 H 0.0 **** 0.06
20080 H 24.22314762026025 163.45514447897568 138.3870292912194 H 0.0 **** 0.06
20081 C 155.67993564187657 190.2525457665996 81.96477532724361 C 0.0 **** -0.24
20082 H 154.59434418112295 190.16746911761393 81.92122286968771 H 0.0 **** 0.06
20083 H 156.126109706537 189.59187472829774 81.22115433860154 H 0.0 **** 0.06
20084 H 156.02809133564656 189.9687602248685 82.9579284178999 H 0.0 **** 0.06
20085 H 155.9719536226175 191.282484867989 81.75729123091716 H 0.0 **** 0.06
20086 C 197.37654260889377 91.01010530082169 131.61528828935317 C 0.0 **** -0.24
20087 H 196.44065261442572 91.56734322129441 131.58395962695704 H 0.0 **** 0.06
20088 H 197.5656331435463 90.56203383863482 130.63976667596606 H 0.0 **** 0.06
20089 H 197.3068694859188 90.22501458287806 132.36848408861286 H 0.0 **** 0.06
20090 H 198.1939440580415 91.68618013016419 131.86928122957826 H 0.0 **** 0.06
20091 C 83.7692347799892 112.47587708779321 18.046793407188147 C 0.0 **** -0.24
20092 H 83.07648435299168 112.21860050595907 18.84760878758658 H 0.0 **** 0.06
20093 H 83.20639671544285 112.73634021787609 17.150423531859758 H 0.0 **** 0.06
20094 H 84.41450939605093 111.62331384944511 17.836976203992606 H 0.0 **** 0.06
20095 H 84.3782173381293 113.3264468170695 18.353508369897213 H 0.0 **** 0.06
20096 C 65.67086877410765 61.18458264287037 144.56259609141836 C 0.0 **** -0.24
20097 H 65.12228037812486 61.42080462587215 145.4744012403745 H 0.0 **** 0.06
20098 H 65.6745018391581 60.10530968928258 144.41058829053358 H 0.0 **** 0.06
20099 H 66.6954998225848 61.5442351044054 144.65177559370593 H 0.0 **** 0.06
20100 H 65.18807558094022 61.669791810264456 143.71367530464218 H 0.0 **** 0.06
20101 C 195.0988827295687 53.81747770027306 198.167070202259 C 0.0 **** -0.24
20102 H 194.94688089900407 52.74448658543554 198.04691942407158 H 0.0 **** 0.06
20103 H 194.2804087372055 54.23662397055064 198.75323266552965 H 0.0 **** 0.06
20104 H 195.12505608691356 54.292267597652994 197.18648406046424 H 0.0 **** 0.06
20105 H 196.04325843956644 53.9942106428784 198.68242122816378 H 0.0 **** 0.06
20106 C 84.41617857895699 151.20014158295615 133.12187995007383 C 0.0 **** -0.24
20107 H 85.21366712123876 151.32526638152657 132.38968360717436 H 0.0 **** 0.06
20108 H 83.46641855741689 151.06445659193065 132.60390583772062 H 0.0 **** 0.06
20109 H 84.36163309794472 152.08565050095038 133.75412468242695 H 0.0 **** 0.06
20110 H 84.62246192277132 150.32576341217919 133.7386267904627 H 0.0 **** 0.06
20111 C 157.19977582677 134.49746790870688 70.38204264682321 C 0.0 **** -0.24
20112 H 157.13675745348843 133.8110722544995 69.53738331742613 H 0.0 **** 0.06
20113 H 158.21749970355705 134.88182547714058 70.46142834531724 H 0.0 **** 0.06
20114 H 156.93897940418177 133.96826970496957 71.299040568196 H 0.0 **** 0.06
20115 H 156.50807984845824 135.32572044987435 70.22987144997063 H 0.0 **** 0.06
20116 C 32.93509103706583 187.6597151867632 37.15461784001022 C 0.0 **** -0.24
20117 H 33.60051750952377 186.84958881526245 36.85860681926914 H 0.0 **** 0.06
20118 H 31.904359734045215 187.30607475334133 37.14253079659207 H 0.0 **** 0.06
20119 H 33.04313768857446 188.4914182291525 36.45847514565261 H 0.0 **** 0.06
20120 H 33.19348229027318 187.99268544518316 38.160559926318356 H 0.0 **** 0.06
20121 C 49.784208534484435 50.91514857243402 141.1238520827471 C 0.0 **** -0.24
20122 H 50.440915412861784 50.27150524116152 140.53806198974814 H 0.0 **** 0.06
20123 H 50.3843197238254 51.63596554607784 141.68003024992242 H 0.0 **** 0.06
20124 H 49.20671607648546 50.30795890789858 141.82111018405067 H 0.0 **** 0.06
20125 H 49.10600829609692 51.44619134741666 140.4553816604203 H 0.0 **** 0.06
20126 C 70.44188875824278 91.2914743620621 56.129122434464236 C 0.0 **** -0.24
20127 H 70.59928653314677 92.23248290065823 55.60114177834477 H 0.0 **** 0.06
20128 H 69.70713342102869 90.69201727608555 55.59070205906745 H 0.0 **** 0.06
20129 H 70.07802004094043 91.49656946607382 57.13553746845574 H 0.0 **** 0.06
20130 H 71.38354908255099 90.74660761942425 56.18653082000898 H 0.0 **** 0.06
20131 C 3.9137181286080533 143.1424012283829 127.21646936104568 C 0.0 **** -0.24
20132 H 4.967274625669319 143.3977671920365 127.33533752677849 H 0.0 **** 0.06
20133 H 3.637567722043457 142.38556920326778 127.95021175899922 H 0.0 **** 0.06
20134 H 3.7453580047726405 142.75455519776335 126.21182713268965 H 0.0 **** 0.06
20135 H 3.3055340957695876 144.03458350636524 127.36749141235154 H 0.0 **** 0.06
20136 C 35.124151801201236 176.20113420222305 105.14931787393277 C 0.0 **** -0.24
20137 H 34.13661774685227 176.15793758166967 105.60957350245633 H 0.0 **** 0.06
20138 H 35.077226369012436 175.77474887458004 104.14721945521364 H 0.0 **** 0.06
20139 H 35.83084637892557 175.63274626334078 105.75431425056638 H 0.0 **** 0.06
20140 H 35.45132225511719 177.23940461726517 105.08805012756864 H 0.0 **** 0.06
20141 C 20.06447501074291 99.9106452724501 110.51707184696326 C 0.0 **** -0.24
20142 H 20.563748346938354 100.78866077567267 110.92507008563302 H 0.0 **** 0.06
20143 H 19.369961731575017 99.51096564295779 111.25686993366011 H 0.0 **** 0.06
20144 H 20.80781353209494 99.15276393276909 110.26981813255114 H 0.0 **** 0.06
20145 H 19.516785434531528 100.18868678285259 109.61728481511466 H 0.0 **** 0.06
20146 C 82.31938923908771 136.47558331930958 101.77812620521604 C 0.0 **** -0.24
20147 H 83.08245423409798 136.13347340488806 101.07919037407669 H 0.0 **** 0.06
20148 H 82.18643724882759 137.55306995898724 101.67308323205953 H 0.0 **** 0.06
20149 H 82.62973588878279 136.24432418685927 102.79699265785547 H 0.0 **** 0.06
20150 H 81.37729914044243 135.97081300674125 101.56228163728917 H 0.0 **** 0.06
20151 C 121.69006946443372 35.064572071690634 151.6075023088844 C 0.0 **** -0.24
20152 H 120.78203016081113 35.52555281654716 151.9959209671355 H 0.0 **** 0.06
20153 H 122.54066196982106 35.36879900394081 152.21823798534706 H 0.0 **** 0.06
20154 H 121.84848147434201 35.38450237166512 150.5778145348191 H 0.0 **** 0.06
20155 H 121.58885291390737 33.98005478175088 151.64016921591477 H 0.0 **** 0.06
20156 C 30.520546337059443 12.769482172558227 56.35589124488477 C 0.0 **** -0.24
20157 H 31.54956040312794 12.912287190824259 56.02677356126131 H 0.0 **** 0.06
20158 H 30.399197670308865 13.18263371107414 57.356734373508985 H 0.0 **** 0.06
20159 H 30.288046240480128 11.704472135064485 56.370244511034 H 0.0 **** 0.06
20160 H 29.84561242837907 13.279384130858908 55.667124278630524 H 0.0 **** 0.06
20161 C 197.84145773110237 84.25231337806616 39.48049565690465 C 0.0 **** -0.24
20162 H 196.89331097016958 83.72151939864156 39.572989867140606 H 0.0 **** 0.06
20163 H 198.00664947282033 84.85724626653499 40.372326684564825 H 0.0 **** 0.06
20164 H 197.81173680832165 84.89768414177317 38.60307391786637 H 0.0 **** 0.06
20165 H 198.6521628469569 83.5307805450777 39.375014439011935 H 0.0 **** 0.06
20166 C 177.9387381826121 10.653419918772244 143.99302457458717 C 0.0 **** -0.24
20167 H 178.8260280515786 11.287564968352967 144.00210516898574 H 0.0 **** 0.06
20168 H 177.13343875357987 11.14793581087153 144.53579297329475 H 0.0 **** 0.06
20169 H 178.16945967795277 9.700650161134547 144.47105918995973 H 0.0 **** 0.06
20170 H 177.6290964254974 10.476793202229317 142.9629587185508 H 0.0 **** 0.06
20171 C 17.107883215086176 172.33628423844246 7.96534663287958 C 0.0 **** -0.24
20172 H 17.468477158902544 172.89267954691405 8.83145978164896 H 0.0 **** 0.06
20173 H 17.958264227148135 171.98153694997282 7.382523168697752 H 0.0 **** 0.06
20174 H 16.488556373729764 172.9870712004353 7.347979417351375 H 0.0 **** 0.06
20175 H 16.516773823212446 171.48417102069558 8.30179194239468 H 0.0 **** 0.06
20176 C 149.07918208596126 38.81642836874801 116.74764833974095 C 0.0 **** -0.24
20177 H 148.0071374211816 38.840952847272945 116.93871752083552 H 0.0 **** 0.06
20178 H 149.423136835885 39.815939350629264 116.478702912035 H 0.0 **** 0.06
20179 H 149.2861808579801 38.12855338360278 115.92832289859754 H 0.0 **** 0.06
20180 H 149.60016392034115 38.48137686635728 117.64397923815989 H 0.0 **** 0.06
20181 C 31.30849955613934 8.053738442410939 21.011197745144784 C 0.0 **** -0.24
20182 H 32.25652061131268 7.5192376970469255 21.06984678238912 H 0.0 **** 0.06
20183 H 31.28838836185446 8.659178031348581 20.105013918892226 H 0.0 **** 0.06
20184 H 31.201999964339052 8.699437024027269 21.882579320332326 H 0.0 **** 0.06
20185 H 30.488920207500854 7.336204028148664 20.98826924486572 H 0.0 **** 0.06
20186 C 149.96892990895438 131.0642923559817 137.0005629955603 C 0.0 **** -0.24
20187 H 150.786075516832 130.9978933798626 137.71765146708253 H 0.0 **** 0.06
20188 H 149.58075501444193 130.06495632440567 136.79909967552805 H 0.0 **** 0.06
20189 H 150.33353788917805 131.50663061397813 136.07410331308188 H 0.0 **** 0.06
20190 H 149.17372398551802 131.6865834319525 137.41175765860487 H 0.0 **** 0.06
20191 C 159.84971165700637 135.19409846194299 113.67149360393074 C 0.0 **** -0.24
20192 H 160.8795756878808 135.399805993394 113.37956180882694 H 0.0 **** 0.06
20193 H 159.18536635271107 135.41126822976773 112.83538279784457 H 0.0 **** 0.06
20194 H 159.581046607012 135.82219008341082 114.52142931280733 H 0.0 **** 0.06
20195 H 159.75376665377257 134.14524517995716 113.9504362683949 H 0.0 **** 0.06
20196 C 101.03746630335706 181.16547947038362 62.48606989031518 C 0.0 **** -0.24
20197 H 100.5040932138293 180.7460716348605 61.63404825977443 H 0.0 **** 0.06
20198 H 102.01029713994933 180.6818783072818 62.57996761146681 H 0.0 **** 0.06
20199 H 100.45911747267286 180.99889991568926 63.394813288214166 H 0.0 **** 0.06
20200 H 101.1776487112588 182.23652325636363 62.33591393817866 H 0.0 **** 0.06
20201 C 99.83505263487424 139.082685903217 67.17987079963424 C 0.0 **** -0.24
20202 H 100.89068528857356 139.2027563981598 66.93998036506399 H 0.0 **** 0.06
20203 H 99.2640405153698 138.96689483094968 66.25773073104442 H 0.0 **** 0.06
20204 H 99.48213253608597 139.96332482714433 67.71788028167938 H 0.0 **** 0.06
20205 H 99.7017645231457 138.19831730065764 67.80347095232139 H 0.0 **** 0.06
20206 C 162.45983207245988 128.3607419946212 158.0835190607511 C 0.0 **** -0.24
20207 H 163.35186459984948 128.63735101316507 158.64415893603345 H 0.0 **** 0.06
20208 H 162.1242659669445 129.21308327099308 157.491183463529 H 0.0 **** 0.06
20209 H 161.6715093556475 128.0664606704364 158.77638952425258 H 0.0 **** 0.06
20210 H 162.69079256021342 127.5267717239501 157.42150206569534 H 0.0 **** 0.06
20211 C 148.78177995350867 192.5465463374416 14.73695339398418 C 0.0 **** -0.24
20212 H 148.0713970419673 191.72821823926554 14.620394737130681 H 0.0 **** 0.06
20213 H 148.35449638044196 193.46080410187716 14.324137227902064 H 0.0 **** 0.06
20214 H 149.7036722632728 192.30519825937532 14.206910586396027 H 0.0 **** 0.06
20215 H 148.99831287244749 192.69175440204424 15.795754515733165 H 0.0 **** 0.06
20216 C 94.61762916414318 64.7605182440269 89.89558141214079 C 0.0 **** -0.24
20217 H 94.00364986576409 65.53705305624361 90.35161845619487 H 0.0 **** 0.06
20218 H 95.65889115388381 64.90351759973677 90.18816026022918 H 0.0 **** 0.06
20219 H 94.53242326017488 64.82090741494419 88.81118814561407 H 0.0 **** 0.06
20220 H 94.27634616628245 63.78260542472189 90.23387432764903 H 0.0 **** 0.06
20221 C 8.559209344027025 86.9104875862374 127.38826368978243 C 0.0 **** -0.24
20222 H 8.804210730616902 87.89867326612224 126.99897194238105 H 0.0 **** 0.06
20223 H 8.653218434059674 86.17285809003596 126.59089256329702 H 0.0 **** 0.06
20224 H 7.535809721324178 86.91161428248432 127.7625732023059 H 0.0 **** 0.06
20225 H 9.243384368312462 86.65977997090928 128.1983802810382 H 0.0 **** 0.06
20226 C 106.623579513517 115.04521283948486 42.81029396197093 C 0.0 **** -0.24
20227 H 107.57950822433574 114.79770891070928 42.348581074653964 H 0.0 **** 0.06
20228 H 106.60638845490385 116.10486377565508 43.063226803473626 H 0.0 **** 0.06
20229 H 106.49359663431781 114.45207986811914 43.71525661432884 H 0.0 **** 0.06
20230 H 105.8165644747011 114.8243801267653 42.11247858643203 H 0.0 **** 0.06
20231 C 154.9503936776783 144.42396607322726 139.52239652435028 C 0.0 **** -0.24
20232 H 155.58744579166944 144.21918749075172 138.66219537915364 H 0.0 **** 0.06
20233 H 155.46873497702313 145.09754673593196 140.20543685149815 H 0.0 **** 0.06
20234 H 154.72400362890602 143.48930509215748 140.03631100846172 H 0.0 **** 0.06
20235 H 154.02384795927816 144.88817215961797 139.1861207435038 H 0.0 **** 0.06
20236 C 33.02197489861061 148.24383481807743 184.67668392122744 C 0.0 **** -0.24
20237 H 33.89325845969654 148.293528957703 184.02329954741603 H 0.0 **** 0.06
20238 H 33.13975206995383 147.41776848042048 185.37765297582013 H 0.0 **** 0.06
20239 H 32.126730814260725 148.08584032179823 184.07510644856256 H 0.0 **** 0.06
20240 H 32.9278939405861 149.17901991347583 185.22861262299787 H 0.0 **** 0.06
20241 C 103.91491182811501 98.2862217404861 158.15994932326205 C 0.0 **** -0.24
20242 H 103.11040602254471 98.6614888850296 158.79179475030136 H 0.0 **** 0.06
20243 H 103.63689347300232 97.31240734594587 157.7570969965445 H 0.0 **** 0.06
20244 H 104.82594793310636 98.19019607574751 158.7498602911236 H 0.0 **** 0.06
20245 H 104.08578585542634 98.98384912913292 157.33897318825916 H 0.0 **** 0.06
20246 C 35.53084323779865 10.184734376486489 188.54137893895677 C 0.0 **** -0.24
20247 H 34.97340287753855 10.587057557585979 189.38643453193055 H 0.0 **** 0.06
20248 H 36.483686629799365 9.787681405357915 188.89143335003862 H 0.0 **** 0.06
20249 H 35.71090555897405 10.975954992075458 187.81433687869452 H 0.0 **** 0.06
20250 H 34.95502849115684 9.386277314802072 188.073420201367 H 0.0 **** 0.06
20251 C 58.08824328084927 13.103265006626032 85.2440768969044 C 0.0 **** -0.24
20252 H 57.55603275834187 13.79446352201694 85.89745064142772 H 0.0 **** 0.06
20253 H 57.9203587170681 12.080842047838246 85.58273565073819 H 0.0 **** 0.06
20254 H 59.154804050065195 13.32524488224891 85.27291668080068 H 0.0 **** 0.06
20255 H 57.72093278733058 13.211998174501815 84.22336205297313 H 0.0 **** 0.06
20256 C 88.73687626085965 83.56852606984884 77.12219987323701 C 0.0 **** -0.24
20257 H 89.13157587504975 82.75579530002884 77.73229871943911 H 0.0 **** 0.06
20258 H 89.55420371354555 84.22331982085566 76.81837314233823 H 0.0 **** 0.06
20259 H 88.01058670479244 84.13774712187504 77.70123573454708 H 0.0 **** 0.06
20260 H 88.25314696825777 83.15599674008129 76.23624658598217 H 0.0 **** 0.06
20261 C 180.5228939757451 0.909297858180139 22.762803505640306 C 0.0 **** -0.24
20262 H 179.84504598892158 0.13898009992277593 23.12989522451049 H 0.0 **** 0.06
20263 H 181.41829024631176 0.9322308267848598 23.38566330174676 H 0.0 **** 0.06
20264 H 180.02709664361305 1.8788655335424664 22.803903372790515 H 0.0 **** 0.06
20265 H 180.8025069403168 0.6868552348933861 21.73350494327643 H 0.0 **** 0.06
20266 C 65.0487341322622 50.74805066335705 111.07585172761799 C 0.0 **** -0.24
20267 H 65.27147609654462 49.743946196861884 111.437468833065 H 0.0 **** 0.06
20268 H 64.47850235164755 50.68205736248842 110.14974737971511 H 0.0 **** 0.06
20269 H 65.98178344385947 51.282079050415064 110.89194039448535 H 0.0 **** 0.06
20270 H 64.46522115083754 51.28360346961523 111.82549330845814 H 0.0 **** 0.06
20271 C 121.36599939291699 144.31692672453735 1.5317071723908953 C 0.0 **** -0.24
20272 H 121.5510613289535 143.75836569435108 0.6136677626269318 H 0.0 **** 0.06
20273 H 122.30573586835249 144.72377063264318 1.9044001573896878 H 0.0 **** 0.06
20274 H 120.9354302324493 143.65079890999124 2.2798913958475566 H 0.0 **** 0.06
20275 H 120.67194914554068 145.13176622859132 1.3274781258652126 H 0.0 **** 0.06
20276 C 186.83774078658547 157.55852617585558 106.26783852107496 C 0.0 **** -0.24
20277 H 186.88942084760077 156.51612415221524 105.95299112754557 H 0.0 **** 0.06
20278 H 187.39426380771943 157.68492388464563 107.19620720690642 H 0.0 **** 0.06
20279 H 185.7962585987049 157.8371889406887 106.42786537755751 H 0.0 **** 0.06
20280 H 187.26947758354518 158.1931071329467 105.49431540260863 H 0.0 **** 0.06
20281 C 35.17756286177904 94.58970825514689 177.20448549252924 C 0.0 **** -0.24
20282 H 34.2389653115317 95.1068455873536 177.40665454520033 H 0.0 **** 0.06
20283 H 35.05545897799057 93.94054100476725 176.33745192666333 H 0.0 **** 0.06
20284 H 35.45503450884563 93.99022829905405 178.07103320137077 H 0.0 **** 0.06
20285 H 35.95952088995577 95.32166759150053 177.00322733410238 H 0.0 **** 0.06
20286 C 158.10707400672737 113.58227256832453 150.55705140271786 C 0.0 **** -0.24
20287 H 158.87780720425675 113.88778112679262 149.84962328965148 H 0.0 **** 0.06
20288 H 158.233081157324 112.5268346902335 150.79921616850652 H 0.0 **** 0.06
20289 H 157.12317547835698 113.73881794592376 150.11288932578952 H 0.0 **** 0.06
20290 H 158.19329706033665 114.17711337781506 151.4664207893426 H 0.0 **** 0.06
20291 C 85.31442578110716 4.4662789785170744 135.71485826053197 C 0.0 **** -0.24
20292 H 84.49857269513939 3.758399701302551 135.56632083146215 H 0.0 **** 0.06
20293 H 86.22954038094258 4.061852104557808 135.28075817528426 H 0.0 **** 0.06
20294 H 85.45990445828261 4.6336015085282725 136.78215944196566 H 0.0 **** 0.06
20295 H 85.06816541870614 5.410770350178879 135.2286303435784 H 0.0 **** 0.06
20296 C 40.82601533850574 103.69878320168755 101.71488419369575 C 0.0 **** -0.24
20297 H 40.714029307976816 103.53986346561558 102.78754179751147 H 0.0 **** 0.06
20298 H 40.38266811068914 104.65618046235303 101.44132725085586 H 0.0 **** 0.06
20299 H 40.32513175956528 102.89692241305903 101.17430066178969 H 0.0 **** 0.06
20300 H 41.88529082027313 103.7032197364689 101.45824738834955 H 0.0 **** 0.06
20301 C 132.95997741912214 171.3200990815101 190.5697254407464 C 0.0 **** -0.24
20302 H 133.32638139706037 170.97332167169975 191.53628337958546 H 0.0 **** 0.06
20303 H 133.78779683249056 171.73737201383878 189.99666611173265 H 0.0 **** 0.06
20304 H 132.20006239254218 172.08640386310094 190.72347465669841 H 0.0 **** 0.06
20305 H 132.52600524680483 170.48223661375815 190.02465910821005 H 0.0 **** 0.06
20306 C 164.40967711100137 181.3369098676592 181.36258274294073 C 0.0 **** -0.24
20307 H 165.11423554807828 181.62975049844448 180.5849160851988 H 0.0 **** 0.06
20308 H 163.5179326387287 181.96115791521746 181.2986384495428 H 0.0 **** 0.06
20309 H 164.87405055403516 181.46375074521802 182.3395629571051 H 0.0 **** 0.06
20310 H 164.13171503441583 180.29181216723705 181.22547122999276 H 0.0 **** 0.06
20311 C 105.05151342357604 63.494456876629386 179.11631049509924 C 0.0 **** -0.24
20312 H 104.10347045364693 63.89618269380941 178.75930409887167 H 0.0 **** 0.06
20313 H 104.93264191202078 62.436413952711916 179.35226905562848 H 0.0 **** 0.06
20314 H 105.36099613292217 64.0342401516782 180.01170491526784 H 0.0 **** 0.06
20315 H 105.81028849891874 63.611408695880755 178.34181945949092 H 0.0 **** 0.06
20316 C 61.73877233874708 15.401700083004513 179.5695020078998 C 0.0 **** -0.24
20317 H 61.377723424387 14.795807727829427 180.40128133200608 H 0.0 **** 0.06
20318 H 61.646447320864695 14.837207331289463 178.64139494697616 H 0.0 **** 0.06
20319 H 62.78461218124278 15.659281149767978 179.7363962787552 H 0.0 **** 0.06
20320 H 61.14626421593903 16.314048148929018 179.5013418062012 H 0.0 **** 0.06
20321 C 154.40257816400714 92.01419503942483 112.95358972322913 C 0.0 **** -0.24
20322 H 154.1902202188869 92.610999468308 113.8406930214814 H 0.0 **** 0.06
20323 H 154.55372546162567 92.67389634306582 112.09927106920526 H 0.0 **** 0.06
20324 H 153.5629094239893 91.347700653593 112.75444821421937 H 0.0 **** 0.06
20325 H 155.30297216880234 91.42261444650507 113.12049607389565 H 0.0 **** 0.06
20326 C 153.11312206425907 160.12569521179512 37.95038583034426 C 0.0 **** -0.24
20327 H 153.0696980788613 159.78377211989041 38.98495707553127 H 0.0 **** 0.06
20328 H 152.53039258346922 159.45169326036324 37.32099291270325 H 0.0 **** 0.06
20329 H 154.1494398264161 160.13206845102425 37.613385016733275 H 0.0 **** 0.06
20330 H 152.7019833753015 161.13274356646977 37.88309345604529 H 0.0 **** 0.06
20331 C 94.74493943614414 81.68150708771935 197.82468791221194 C 0.0 **** -0.24
20332 H 95.11900579869098 82.30165033975845 197.01059555426517 H 0.0 **** 0.06
20333 H 95.5591515263232 81.07855506162161 198.22586018726494 H 0.0 **** 0.06
20334 H 93.95821519683079 81.02667096314906 197.45024792998012 H 0.0 **** 0.06
20335 H 94.34253853652206 82.3191055204179 198.61151789715845 H 0.0 **** 0.06
20336 C 150.4632677598352 6.527367651692366 152.45323331172617 C 0.0 **** -0.24
20337 H 151.0397446682092 5.914296292409986 151.7609208451364 H 0.0 **** 0.06
20338 H 151.1344309162484 6.984428731092322 153.1801761314889 H 0.0 **** 0.06
20339 H 149.73647732042087 5.90279490166651 152.9712180484467 H 0.0 **** 0.06
20340 H 149.94146039518003 7.307804552980613 151.89836844148934 H 0.0 **** 0.06
20341 C 197.95240225351873 61.98031385758179 157.35659522161492 C 0.0 **** -0.24
20342 H 197.39711173634998 61.04399174352051 157.31673307295972 H 0.0 **** 0.06
20343 H 197.26601664976772 62.81645909226262 157.22117128481295 H 0.0 **** 0.06
20344 H 198.7018151611419 61.99217282373627 156.5644617949461 H 0.0 **** 0.06
20345 H 198.44629598739752 62.06826694329874 158.32447120758408 H 0.0 **** 0.06
20346 C 39.190396400881156 1.6543169412802143 179.1706030211284 C 0.0 **** -0.24
20347 H 38.77246280435011 1.3166278760574244 178.222121976967 H 0.0 **** 0.06
20348 H 38.38973514912162 2.0360149609618077 179.80482607593035 H 0.0 **** 0.06
20349 H 39.9168961742905 2.4467670823348087 178.98499164883745 H 0.0 **** 0.06
20350 H 39.682964889138816 0.8193872898711803 179.6686185191892 H 0.0 **** 0.06
20351 C 26.953602422803243 112.23837159097286 118.31952067840678 C 0.0 **** -0.24
20352 H 26.576221070102505 112.27210583725991 119.34155247714276 H 0.0 **** 0.06
20353 H 26.512000890516944 111.38858492804306 117.79778758227619 H 0.0 **** 0.06
20354 H 28.03755584909169 112.13163047797968 118.33610243971467 H 0.0 **** 0.06
20355 H 26.686988649262446 113.16036193108272 117.8034493874417 H 0.0 **** 0.06
20356 C 73.84933833613684 132.10639171111234 122.51042879673992 C 0.0 **** -0.24
20357 H 73.49968867690734 133.11385393363128 122.7373664137761 H 0.0 **** 0.06
20358 H 73.3091723687254 131.38738807803708 123.12683872420425 H 0.0 **** 0.06
20359 H 74.91646237656869 132.036492758186 122.72251159239093 H 0.0 **** 0.06
20360 H 73.67245884688862 131.88880433265075 121.45696590318036 H 0.0 **** 0.06
20361 C 141.0135557132808 33.35725509538793 151.5498369908598 C 0.0 **** -0.24
20362 H 141.21809782573177 34.39574962521033 151.81269502518623 H 0.0 **** 0.06
20363 H 140.12311205951372 33.01803209341449 152.07958650470755 H 0.0 **** 0.06
20364 H 141.86400394702517 32.737332633897495 151.8331118035309 H 0.0 **** 0.06
20365 H 140.84949122299548 33.280927988263215 150.47523348937588 H 0.0 **** 0.06
20366 C 159.93672984016314 198.29972429119522 147.95033685229828 C 0.0 **** -0.24
20367 H 159.35301585327448 197.37933691596243 147.9534573955467 H 0.0 **** 0.06
20368 H 159.3459216345476 199.10579870599943 148.38652649599305 H 0.0 **** 0.06
20369 H 160.2023790811848 198.55775497964464 146.92513427290817 H 0.0 **** 0.06
20370 H 160.84421158392433 198.15609055287862 148.5359893905407 H 0.0 **** 0.06
20371 C 52.91690582461351 63.167591433704445 36.449634029996346 C 0.0 **** -0.24
20372 H 53.91327375068579 62.84625042310222 36.1474179206685 H 0.0 **** 0.06
20373 H 52.930730753389895 64.23442578973857 36.672394006530695 H 0.0 **** 0.06
20374 H 52.61252641780587 62.61464710865749 37.33871414380799 H 0.0 **** 0.06
20375 H 52.21126698364128 62.97351840522515 35.64163701541389 H 0.0 **** 0.06
20376 C 149.27282870787712 74.72082869530577 190.88593585416132 C 0.0 **** -0.24
20377 H 149.9798254837816 74.85070696415303 191.70478007461952 H 0.0 **** 0.06
20378 H 148.91924724036164 73.68945757031588 190.8716023596806 H 0.0 **** 0.06
20379 H 149.7656356599776 74.94849332476235 189.9404175732181 H 0.0 **** 0.06
20380 H 148.42675623059995 75.39355945318162 191.02561179655237 H 0.0 **** 0.06
20381 C 161.04210054632208 188.49425160676498 134.8018370975962 C 0.0 **** -0.24
20382 H 162.129031910883 188.4528622938873 134.72942976537445 H 0.0 **** 0.06
20383 H 160.66657207811164 189.29900696452268 134.16862236408832 H 0.0 **** 0.06
20384 H 160.7533785740371 188.6802716603203 135.83600528073336 H 0.0 **** 0.06
20385 H 160.62026577503275 187.54447600721673 134.4712581441287 H 0.0 **** 0.06
20386 C 58.0974481297758 87.93349405594594 77.90217721972206 C 0.0 **** -0.24
20387 H 58.398875459813894 88.25828416611446 78.89849275739311 H 0.0 **** 0.06
20388 H 58.653124020397996 88.49670870344579 77.15242376153054 H 0.0 **** 0.06
20389 H 57.02924588303195 88.1081772237186 77.77171096407214 H 0.0 **** 0.06
20390 H 58.30853333027363 86.86985388454497 77.78833820031151 H 0.0 **** 0.06
20391 C 143.0209299933221 91.66590359821993 126.43550036273717 C 0.0 **** -0.24
20392 H 144.01198275746492 92.0141582592413 126.14489274385795 H 0.0 **** 0.06
20393 H 142.5602188533888 91.14290569088917 125.59728432675689 H 0.0 **** 0.06
20394 H 142.40366681005185 92.51972273920569 126.71461094215121 H 0.0 **** 0.06
20395 H 143.10885072330566 90.98807449044943 127.28401041434853 H 0.0 **** 0.06
20396 C 70.82985597377188 159.39506874207203 40.61193134961678 C 0.0 **** -0.24
20397 H 71.1469070864785 158.74222198859854 39.79835320194819 H 0.0 **** 0.06
20398 H 70.99579397477055 160.4344655920072 40.32774045910067 H 0.0 **** 0.06
20399 H 71.40773294651058 159.1655879074723 41.50752190666695 H 0.0 **** 0.06
20400 H 69.77048477444794 159.23704420711792 40.812748627643344 H 0.0 **** 0.06
20401 C 133.7407471994682 76.54588330454527 103.38220074148435 C 0.0 **** -0.24
20402 H 134.28370278638548 76.96519239575113 104.22993998471895 H 0.0 **** 0.06
20403 H 132.80111290300434 76.11536267434646 103.72999677716825 H 0.0 **** 0.06
20404 H 134.34417388991625 75.769240917484 102.91309041522678 H 0.0 **** 0.06
20405 H 133.53453930456138 77.33371668772196 102.65794557987164 H 0.0 **** 0.06
20406 C 1.2272607149939532 92.81143158440358 56.69636103168426 C 0.0 **** -0.24
20407 H 1.9967317464595382 92.65457648251763 55.94115942438975 H 0.0 **** 0.06
20408 H 1.1152951538754081 91.90648901561303 57.29436049938306 H 0.0 **** 0.06
20409 H 0.2802274962627749 93.04439840584709 56.20933204870761 H 0.0 **** 0.06
20410 H 1.5170224406246788 93.64122363250317 57.34283302040336 H 0.0 **** 0.06
20411 C 45.41295959688762 16.070709181056685 89.54435835417223 C 0.0 **** -0.24
20412 H 46.105834120138354 16.91065590618436 89.58348705218316 H 0.0 **** 0.06
20413 H 45.05413354476761 15.942764947424507 88.52278611814182 H 0.0 **** 0.06
20414 H 44.56828975562871 16.26580815767781 90.20489444344145 H 0.0 **** 0.06
20415 H 45.92351148604348 15.162650675915302 89.8659842462776 H 0.0 **** 0.06
20416 C 39.78918105367137 157.29846099031283 5.535675375295767 C 0.0 **** -0.24
20417 H 39.58587893132784 157.5965520352383 6.56353851202708 H 0.0 **** 0.06
20418 H 39.28708242519008 156.35265845700775 5.326445196386246 H 0.0 **** 0.06
20419 H 40.8630547285764 157.17709873636952 5.397859590324458 H 0.0 **** 0.06
20420 H 39.419464015152926 158.06430256705252 4.854932662558397 H 0.0 **** 0.06
20421 C 11.754126992074731 153.10339597283686 126.64926245020982 C 0.0 **** -0.24
20422 H 12.377833415797056 153.34485659644338 127.5109739939297 H 0.0 **** 0.06
20423 H 12.018409005371694 152.1148832304688 126.27505363833922 H 0.0 **** 0.06
20424 H 11.914950158157637 153.84459109220927 125.86641994622067 H 0.0 **** 0.06
20425 H 10.705376478024391 153.11131463474044 126.94772409973959 H 0.0 **** 0.06
20426 C 152.60726333924606 19.041853135341057 75.12273280405645 C 0.0 **** -0.24
20427 H 152.31267271495915 18.09924730170934 75.58308730838621 H 0.0 **** 0.06
20428 H 153.06818361031742 19.684456738921313 75.8736674352898 H 0.0 **** 0.06
20429 H 151.72604679686333 19.5368291651601 74.71239165690594 H 0.0 **** 0.06
20430 H 153.3205999506057 18.84848023122629 74.32160080484806 H 0.0 **** 0.06
20431 C 164.23126842444375 82.72377606635584 121.58213591980387 C 0.0 **** -0.24
20432 H 163.97716339802662 81.82583820334094 121.01699084242046 H 0.0 **** 0.06
20433 H 163.3951516538034 83.4223630259404 121.54786213770967 H 0.0 **** 0.06
20434 H 165.11370407752383 83.18988816927262 121.1439926736607 H 0.0 **** 0.06
20435 H 164.43795397230633 82.45445163351451 122.61764405795674 H 0.0 **** 0.06
20436 C 23.009029828159157 106.11181237207376 162.94980974377773 C 0.0 **** -0.24
20437 H 21.988856280989893 106.15250755597276 163.33417748726868 H 0.0 **** 0.06
20438 H 23.646220864723716 106.76854883348742 163.5429029122832 H 0.0 **** 0.06
20439 H 23.01797758600594 106.43896800338382 161.90972521364384 H 0.0 **** 0.06
20440 H 23.380712906381405 105.08899614780864 163.01301059235055 H 0.0 **** 0.06
20441 C 26.069151990648038 187.27300512192824 14.805848829191461 C 0.0 **** -0.24
20442 H 25.93045101397118 186.23605259559866 14.499611692980409 H 0.0 **** 0.06
20443 H 25.095978585492503 187.73911459869922 14.960452076853102 H 0.0 **** 0.06
20444 H 26.611378042783542 187.81072463181349 14.028175815891842 H 0.0 **** 0.06
20445 H 26.639515033208085 187.30403473881194 15.734104635148299 H 0.0 **** 0.06
20446 C 54.97158426583094 2.0554417717851834 107.24510642384061 C 0.0 **** -0.24
20447 H 54.060147991856454 2.3393257264175986 106.71827294208941 H 0.0 **** 0.06
20448 H 55.26076564424963 2.8560087202756677 107.92699600731791 H 0.0 **** 0.06
20449 H 55.770673460192086 1.8868354544792965 106.52301497691371 H 0.0 **** 0.06
20450 H 54.79455002508658 1.141471962012531 107.81147444268089 H 0.0 **** 0.06
20451 C 188.60629347280212 15.29680482781248 23.699871231554923 C 0.0 **** -0.24
20452 H 187.5801859206952 14.996566139296249 23.913391055425024 H 0.0 **** 0.06
20453 H 188.96163520289355 15.959016198534016 24.488213795541924 H 0.0 **** 0.06
20454 H 188.63981783509115 15.818317828502813 22.743020667624407 H 0.0 **** 0.06
20455 H 189.241181918749 14.412383053099092 23.653250913670504 H 0.0 **** 0.06
20456 C 7.207608937272568 145.13830239643704 80.14705540691472 C 0.0 **** -0.24
20457 H 7.068721312283628 146.19691607491072 79.92852627572279 H 0.0 **** 0.06
20458 H 6.4085846134076405 144.5620387170868 79.67897847222912 H 0.0 **** 0.06
20459 H 7.183427544443219 144.98295257816827 81.22518914382931 H 0.0 **** 0.06
20460 H 8.170148941992636 144.81008159197367 79.75400765147114 H 0.0 **** 0.06
20461 C 37.2980179713951 26.349722802748275 3.371262217335726 C 0.0 **** -0.24
20462 H 37.07503148129888 27.388815420646083 3.614521852320337 H 0.0 **** 0.06
20463 H 36.84012813533238 26.094719281384812 2.4142126683678455 H 0.0 **** 0.06
20464 H 36.897470677396484 25.700400515393767 4.150087695916923 H 0.0 **** 0.06
20465 H 38.377453547377684 26.214521095686734 3.305300017818034 H 0.0 **** 0.06
20466 C 73.30553430480109 2.599238773157225 150.8936147163844 C 0.0 **** -0.24
20467 H 73.60512728033393 1.8665230621205282 151.64323423853682 H 0.0 **** 0.06
20468 H 73.78103454968357 2.360351610549479 149.94233551292305 H 0.0 **** 0.06
20469 H 73.61428496130145 3.5938339507190236 151.21496365591258 H 0.0 **** 0.06
20470 H 72.22225527694314 2.575581634094384 150.77542178855037 H 0.0 **** 0.06
20471 C 16.148077820214354 92.86056769746745 138.2101326580833 C 0.0 **** -0.24
20472 H 15.203058838642505 93.05427069681187 137.702943394784 H 0.0 **** 0.06
20473 H 16.754027971118376 93.76692764416848 138.2059188122542 H 0.0 **** 0.06
20474 H 16.681970609551684 92.06373296743894 137.69039461988334 H 0.0 **** 0.06
20475 H 15.95335446979405 92.55740030805609 139.23844779213553 H 0.0 **** 0.06
20476 C 100.69869454190626 71.9098584592109 59.53026533027861 C 0.0 **** -0.24
20477 H 101.23219956392697 72.23276533690085 60.42393988526578 H 0.0 **** 0.06
20478 H 99.8219323379731 72.54111005464621 59.38314578982698 H 0.0 **** 0.06
20479 H 100.38423397109995 70.87279221342601 59.6505144458568 H 0.0 **** 0.06
20480 H 101.35628494677161 71.9918122148419 58.6644973841577 H 0.0 **** 0.06
20481 C 130.00401960318288 141.2028456845767 155.22518963454797 C 0.0 **** -0.24
20482 H 130.1127803573424 140.28049252081968 155.79557846490115 H 0.0 **** 0.06
20483 H 129.19234034302193 141.09122871537303 154.50532635375805 H 0.0 **** 0.06
20484 H 130.9327458587062 141.41409989243002 154.69548511631456 H 0.0 **** 0.06
20485 H 129.77736983471038 142.02442549431842 155.90438560897857 H 0.0 **** 0.06
20486 C 83.74720522646464 49.943875862233696 107.84808960258943 C 0.0 **** -0.24
20487 H 84.76196370712427 49.85357360622888 108.23617003153413 H 0.0 **** 0.06
20488 H 83.65100188477493 50.88126137013013 107.3001507275959 H 0.0 **** 0.06
20489 H 83.03874077061207 49.93211377372323 108.67669775019579 H 0.0 **** 0.06
20490 H 83.53846973155103 49.108027785642534 107.18028111952492 H 0.0 **** 0.06
20491 C 143.73125501311648 1.4969285893958784 127.24618848366546 C 0.0 **** -0.24
20492 H 142.89502880370208 1.1669831375345723 127.86201426438609 H 0.0 **** 0.06
20493 H 144.6573447171671 1.409728592180869 127.8144672046271 H 0.0 **** 0.06
20494 H 143.5789263290373 2.5355493942152805 126.9539993992544 H 0.0 **** 0.06
20495 H 143.79214246325844 0.8731715965494118 126.35372075872729 H 0.0 **** 0.06
20496 C 77.8430238489432 188.86650720762032 190.4864417620671 C 0.0 **** -0.24
20497 H 78.31922794472557 188.19813436417093 189.7684326369975 H 0.0 **** 0.06
20498 H 78.50278287598073 189.7105994123023 190.6884617339103 H 0.0 **** 0.06
20499 H 77.64952065875798 188.32636440519832 191.4127424324085 H 0.0 **** 0.06
20500 H 76.9022344656026 189.2303925071023 190.07474468490545 H 0.0 **** 0.06
20501 C 192.12512184096116 55.14121289298532 142.99426436673815 C 0.0 **** -0.24
20502 H 191.07304973765363 55.01327031022345 143.24817115763213 H 0.0 **** 0.06
20503 H 192.70473357793168 54.3271751482317 143.43071079899315 H 0.0 **** 0.06
20504 H 192.48084977434178 56.09333524476668 143.38725843091746 H 0.0 **** 0.06
20505 H 192.24132140713735 55.128790445342986 141.91019885109077 H 0.0 **** 0.06
20506 C 32.553438364186704 174.91413504187184 71.77135552843339 C 0.0 **** -0.24
20507 H 32.156113224100736 175.00187113694395 70.75947024702853 H 0.0 **** 0.06
20508 H 33.32844663541492 175.66509768507032 71.92228251202327 H 0.0 **** 0.06
20509 H 32.978202848803434 173.919654387608 71.90907280876216 H 0.0 **** 0.06
20510 H 31.750561596502877 175.06893341071788 72.49179500024178 H 0.0 **** 0.06
20511 C 188.635417449224 140.8939447188225 11.607826029866459 C 0.0 **** -0.24
20512 H 188.8807897786544 139.92886118412173 12.049668587332881 H 0.0 **** 0.06
20513 H 188.2237160104002 140.74245014390493 10.609232000949127 H 0.0 **** 0.06
20514 H 189.5370197134501 141.50256125712403 11.541569408407021 H 0.0 **** 0.06
20515 H 187.89913567389095 141.402130305373 12.231799806521323 H 0.0 **** 0.06
20516 C 21.612400010517177 86.71549416150086 50.30110199677057 C 0.0 **** -0.24
20517 H 22.545115250392044 86.22531221740891 50.5795595666915 H 0.0 **** 0.06
20518 H 21.415717145487235 86.5477414465806 49.242280691826835 H 0.0 **** 0.06
20519 H 21.6951696401631 87.7864390782334 50.490307937096645 H 0.0 **** 0.06
20520 H 20.794563057420575 86.3038305374663 50.89338021102685 H 0.0 **** 0.06
20521 C 99.00532300473907 110.89302586075581 112.70225990895145 C 0.0 **** -0.24
20522 H 98.13553647471886 110.25197199546125 112.84474853794501 H 0.0 **** 0.06
20523 H 99.51921307858024 111.02510964977799 113.654524867936 H 0.0 **** 0.06
20524 H 98.68183561011926 111.864270529017 112.32595363224553 H 0.0 **** 0.06
20525 H 99.68232938470243 110.43280533364663 111.98345389715698 H 0.0 **** 0.06
20526 C 138.73757820477124 26.22205727527141 117.3494055502793 C 0.0 **** -0.24
20527 H 138.59048740124547 26.812113393351083 118.25398542768198 H 0.0 **** 0.06
20528 H 138.35671016149098 26.77515801449522 116.48977200732577 H 0.0 **** 0.06
20529 H 138.20078838896515 25.27788344270482 117.44126494640386 H 0.0 **** 0.06
20530 H 139.80066837409672 26.024866412048553 117.21279395065653 H 0.0 **** 0.06
20531 C 124.98972037650196 1.5088873149775566 135.05017398116712 C 0.0 **** -0.24
20532 H 124.08665564898115 1.7552996618321117 135.60846219692283 H 0.0 **** 0.06
20533 H 125.69423804929352 2.3386290345202383 135.11485187004118 H 0.0 **** 0.06
20534 H 124.73343481137863 1.3300729202968569 134.00561148036414 H 0.0 **** 0.06
20535 H 125.44386035419956 0.6127343271867858 135.47143560676338 H 0.0 **** 0.06
20536 C 27.186721458161458 21.841571189746787 157.5377541388491 C 0.0 **** -0.24
20537 H 26.513740728550545 22.449339014356667 156.93261787375863 H 0.0 **** 0.06
20538 H 27.448133301608323 22.38555374426781 158.44601981283495 H 0.0 **** 0.06
20539 H 28.090724449144147 21.62573601000173 156.9693586573518 H 0.0 **** 0.06
20540 H 26.69196133369286 20.907675521851814 157.80373529278336 H 0.0 **** 0.06
20541 C 47.48523447650075 62.058278875136935 162.05965820616257 C 0.0 **** -0.24
20542 H 48.271276379699884 61.36681331507462 161.75349938632894 H 0.0 **** 0.06
20543 H 46.54150442011371 61.5197256604675 162.14370991610332 H 0.0 **** 0.06
20544 H 47.38920593532009 62.85008826682018 161.31692333882518 H 0.0 **** 0.06
20545 H 47.74306895739858 62.494668413335134 163.0253560179409 H 0.0 **** 0.06
20546 C 172.2161957505637 86.81326034708354 2.027429136330916 C 0.0 **** -0.24
20547 H 172.65049934052766 86.67245743625728 1.0375146853336332 H 0.0 **** 0.06
20548 H 171.19893911395437 87.19392208711122 1.927018509817195 H 0.0 **** 0.06
20549 H 172.81786439272665 87.52837858840189 2.5892551314076897 H 0.0 **** 0.06
20550 H 172.19777085556018 85.86026799083038 2.554940033269091 H 0.0 **** 0.06
20551 C 92.92822856920205 33.001590859466845 49.736812798462836 C 0.0 **** -0.24
20552 H 93.73624039549557 32.417463609728514 49.29742355593595 H 0.0 **** 0.06
20553 H 93.33799764894565 33.68601023273432 50.479850558298324 H 0.0 **** 0.06
20554 H 92.21403231676632 32.331246824816475 50.21585902617551 H 0.0 **** 0.06
20555 H 92.42433705440067 33.57028450184225 48.95613326358398 H 0.0 **** 0.06
20556 C 33.68800571439289 65.00683738612867 108.48992725457401 C 0.0 **** -0.24
20557 H 34.527141202656026 64.31221567897435 108.47915833227535 H 0.0 **** 0.06
20558 H 33.928553072731404 65.85646223788326 109.12922082478883 H 0.0 **** 0.06
20559 H 32.80317674123796 64.50134594552206 108.87524757382141 H 0.0 **** 0.06
20560 H 33.49372659911006 65.35829469716654 107.47693710093131 H 0.0 **** 0.06
20561 C 136.98726106745764 128.30192602102866 152.0631876183509 C 0.0 **** -0.24
20562 H 136.26612324642826 129.10343789957318 152.22710729539554 H 0.0 **** 0.06
20563 H 137.36630140034526 127.95348449429096 153.02446210208416 H 0.0 **** 0.06
20564 H 137.81419749422582 128.67585264053054 151.4593733136574 H 0.0 **** 0.06
20565 H 136.50152032926397 127.47734875196687 151.54333484874962 H 0.0 **** 0.06
20566 C 114.31022774544127 154.64217692944712 119.06158427373953 C 0.0 **** -0.24
20567 H 114.99368726140261 153.88399402861836 119.44323915817716 H 0.0 **** 0.06
20568 H 114.43978488277787 155.56545344873817 119.62746688392497 H 0.0 **** 0.06
20569 H 113.28364299542358 154.291267087957 119.16908649063731 H 0.0 **** 0.06
20570 H 114.52335183629864 154.82720015292819 118.009223028841 H 0.0 **** 0.06
20571 C 144.55343432120156 7.701310811867245 136.07574436984854 C 0.0 **** -0.24
20572 H 143.73152746323956 7.17499835921808 135.5889753988442 H 0.0 **** 0.06
20573 H 144.21230943792943 8.10370155602493 137.02990169351182 H 0.0 **** 0.06
20574 H 144.8909387597931 8.517264550431719 135.43639943920232 H 0.0 **** 0.06
20575 H 145.3773049604989 7.008387908872351 136.24649184896398 H 0.0 **** 0.06
20576 C 96.8359042725167 102.2800583546458 98.552759236864 C 0.0 **** -0.24
20577 H 95.79825080456845 102.55406975737861 98.74643871501848 H 0.0 **** 0.06
20578 H 97.47566042295205 102.71972167481886 99.3187768232913 H 0.0 **** 0.06
20579 H 97.13312291686958 102.65309890085462 97.57272785594455 H 0.0 **** 0.06
20580 H 96.93555423537487 101.19488075393775 98.57434951461451 H 0.0 **** 0.06
20581 C 198.726859621433 32.58464371105106 166.02173858761196 C 0.0 **** -0.24
20582 H 197.68274876416666 32.70592752181966 166.31008809012508 H 0.0 **** 0.06
20583 H 199.2141489792461 33.55953420336613 166.0052070173922 H 0.0 **** 0.06
20584 H 198.78081596666345 32.133113588778116 165.03118069353334 H 0.0 **** 0.06
20585 H 199.22964775183124 31.93941466599395 166.7428559704462 H 0.0 **** 0.06
20586 C 92.25149975873063 58.47664144881111 176.87310609387163 C 0.0 **** -0.24
20587 H 92.80475449684292 58.9082034868036 177.70782347466627 H 0.0 **** 0.06
20588 H 92.23296456992452 57.39127155418106 176.97166227359924 H 0.0 **** 0.06
20589 H 92.73854391520118 58.74835572672555 175.93607085216343 H 0.0 **** 0.06
20590 H 91.23159399851704 58.8599402637759 176.8765586602421 H 0.0 **** 0.06
20591 C 4.038978363443576 2.6308910114159403 123.27251973230176 C 0.0 **** -0.24
20592 H 4.220317022946745 3.603455013587535 122.81443104486902 H 0.0 **** 0.06
20593 H 3.791394754800109 2.766321214659854 124.3254569116859 H 0.0 **** 0.06
20594 H 4.936003617024788 2.0168243397341428 123.18580454130563 H 0.0 **** 0.06
20595 H 3.2108998001076543 2.138170650986467 122.7638929516965 H 0.0 **** 0.06
20596 C 131.29900035805065 16.46962830447194 157.48706342728275 C 0.0 **** -0.24
20597 H 131.4256640737465 15.96962630879716 156.5270540625876 H 0.0 **** 0.06
20598 H 131.33943744915715 15.732224683797085 158.28898451586196 H 0.0 **** 0.06
20599 H 130.3342207301262 16.975936564259143 157.507627630594 H 0.0 **** 0.06
20600 H 132.09569824051638 17.200548437988004 157.6245076692573 H 0.0 **** 0.06
20601 C 44.227631942860285 149.00090362682053 71.28868908900809 C 0.0 **** -0.24
20602 H 44.14292970230076 150.0053449038706 71.70300530374256 H 0.0 **** 0.06
20603 H 45.276699654783215 148.70525747259845 71.26294067811268 H 0.0 **** 0.06
20604 H 43.82160019722818 148.99032419387572 70.27711408791681 H 0.0 **** 0.06
20605 H 43.66839380133831 148.3023604593461 71.91196980430591 H 0.0 **** 0.06
20606 C 78.1384710421546 99.43384573668106 7.733118328567144 C 0.0 **** -0.24
20607 H 79.06695110844282 99.1909483988513 7.215527417736013 H 0.0 **** 0.06
20608 H 78.347134609664 99.61781341862633 8.786831326086173 H 0.0 **** 0.06
20609 H 77.4419022657263 98.60142810779382 7.638691159408808 H 0.0 **** 0.06
20610 H 77.69900795651317 100.32735227432104 7.288577028541965 H 0.0 **** 0.06
20611 C 189.11407677559032 146.7104733805207 129.33853519397044 C 0.0 **** -0.24
20612 H 188.61790040509425 147.3109381272827 130.1008696187992 H 0.0 **** 0.06
20613 H 188.3959546017971 146.01717607695684 128.898747619289 H 0.0 **** 0.06
20614 H 189.9304720853608 146.14958993947403 129.79264985899525 H 0.0 **** 0.06
20615 H 189.5098046168597 147.36467711651267 128.56204654810523 H 0.0 **** 0.06
20616 C 138.23471626899374 73.74419007114886 4.992392691702719 C 0.0 **** -0.24
20617 H 138.522606383085 72.98062475018227 5.714048381656141 H 0.0 **** 0.06
20618 H 137.65318476220926 73.28562824245509 4.192071595509674 H 0.0 **** 0.06
20619 H 139.13009667941873 74.20411606975979 4.572911223039455 H 0.0 **** 0.06
20620 H 137.6339282663645 74.50528623332873 5.488571140946874 H 0.0 **** 0.06
20621 C 146.0833121751287 135.02592568298473 191.92148093664494 C 0.0 **** -0.24
20622 H 146.16877749452212 134.47126594528834 190.98621735306136 H 0.0 **** 0.06
20623 H 146.74922576829258 134.58837649193208 192.66554711872536 H 0.0 **** 0.06
20624 H 145.05451008172975 134.97673071856542 192.27948067158604 H 0.0 **** 0.06
20625 H 146.3598911248052 136.06687281634254 191.75265901109503 H 0.0 **** 0.06
20626 C 197.03560197689262 61.77177097398794 127.35505991473084 C 0.0 **** -0.24
20627 H 196.93934829051292 60.75089335875526 126.98186444084513 H 0.0 **** 0.06
20628 H 196.0727646840412 62.27675842578054 127.28087304329802 H 0.0 **** 0.06
20629 H 197.7755599520277 62.30658000406663 126.7591906422563 H 0.0 **** 0.06
20630 H 197.3556743647473 61.748456092282794 128.39697247119 H 0.0 **** 0.06
20631 C 146.8486534590329 117.52064040953769 39.446340393119044 C 0.0 **** -0.24
20632 H 146.0123169484375 117.67886448189847 40.12668299082591 H 0.0 **** 0.06
20633 H 147.76180753273044 117.91433756712362 39.89467944566485 H 0.0 **** 0.06
20634 H 146.65480442535 118.03601380252141 38.505925862870185 H 0.0 **** 0.06
20635 H 146.9670530422388 116.45299081228373 39.25802526990091 H 0.0 **** 0.06
20636 C 28.86909243541733 178.93049075567973 100.3427623517729 C 0.0 **** -0.24
20637 H 28.78337054620738 179.03575811204348 99.2608833193506 H 0.0 **** 0.06
20638 H 29.406039404880815 178.01132480785637 100.57611955554572 H 0.0 **** 0.06
20639 H 27.87303524234045 178.89256789402464 100.78352827764317 H 0.0 **** 0.06
20640 H 29.413933674615606 179.78364087856937 100.74782850588568 H 0.0 **** 0.06
20641 C 81.03466298786046 54.99569603368457 164.33837896973932 C 0.0 **** -0.24
20642 H 81.93806848816587 55.490761373609985 164.69493541577387 H 0.0 **** 0.06
20643 H 80.36764214451011 54.8068479495397 165.1804444728592 H 0.0 **** 0.06
20644 H 81.2998436868921 54.05058310484101 163.86462330613378 H 0.0 **** 0.06
20645 H 80.53195856568587 55.63646119088783 163.6130569810503 H 0.0 **** 0.06
20646 C 162.8372266888093 161.56172296768827 51.29182970401796 C 0.0 **** -0.24
20647 H 162.74859912712327 162.59319141870026 50.95217598100635 H 0.0 **** 0.06
20648 H 162.13089586918503 161.38413272460517 52.10262077150959 H 0.0 **** 0.06
20649 H 163.8516205807761 161.3818011797337 51.6466223842657 H 0.0 **** 0.06
20650 H 162.61747869965674 160.8869461512498 50.46384312515431 H 0.0 **** 0.06
20651 C 131.61712744544712 161.51575557490088 50.37411553240855 C 0.0 **** -0.24
20652 H 131.58763960081356 162.26641431737897 51.16369871051873 H 0.0 **** 0.06
20653 H 132.56878948947386 160.98547537566054 50.41258567247712 H 0.0 **** 0.06
20654 H 131.5128495584662 162.00472717037792 49.40538255056799 H 0.0 **** 0.06
20655 H 130.79983715116936 160.80874753010914 50.51441118073717 H 0.0 **** 0.06
20656 C 100.46166119413769 111.32118365765524 159.23852488792326 C 0.0 **** -0.24
20657 H 100.27753348431102 110.97722760516919 160.25632541027323 H 0.0 **** 0.06
20658 H 99.51346304549622 111.40015887666164 158.70593321806362 H 0.0 **** 0.06
20659 H 101.10820466481567 110.60845756990304 158.72649388474164 H 0.0 **** 0.06
20660 H 100.94577407612402 112.29714390748762 159.2671252635562 H 0.0 **** 0.06
20661 C 174.53413226268773 89.94112445234089 81.83862521155638 C 0.0 **** -0.24
20662 H 173.63534385472772 89.35832079815867 81.63826061776845 H 0.0 **** 0.06
20663 H 175.0006991723362 90.22620705300088 80.89503264144955 H 0.0 **** 0.06
20664 H 175.23251208940383 89.3423481840872 82.42391257367072 H 0.0 **** 0.06
20665 H 174.26828537686413 90.83845438834729 82.39878156031295 H 0.0 **** 0.06
20666 C 103.53670415702447 4.483902662593323 157.2323379341307 C 0.0 **** -0.24
20667 H 103.933950293272 3.7351233723750283 157.91697487782153 H 0.0 **** 0.06
20668 H 102.62497106190068 4.105357422121017 156.7689741768869 H 0.0 **** 0.06
20669 H 104.27499415399666 4.69823869362358 156.45927413331853 H 0.0 **** 0.06
20670 H 103.31202829073345 5.397088326645729 157.78368209719838 H 0.0 **** 0.06
20671 C 133.12123857598436 192.66433179360337 111.43693509824712 C 0.0 **** -0.24
20672 H 133.35086095274877 191.6000761704254 111.49890475883097 H 0.0 **** 0.06
20673 H 132.06748780497728 192.82242735300352 111.66921470510673 H 0.0 **** 0.06
20674 H 133.32802106045662 193.02204181295937 110.42812627831606 H 0.0 **** 0.06
20675 H 133.73793309223677 193.21104973888555 112.15023941086199 H 0.0 **** 0.06
20676 C 65.75753033028627 167.71890867217797 127.49117296112993 C 0.0 **** -0.24
20677 H 65.69429408717224 166.85484347761962 128.15279687611505 H 0.0 **** 0.06
20678 H 66.10549254192671 167.39857770656144 126.50885424213365 H 0.0 **** 0.06
20679 H 66.45579159479684 168.44478687201104 127.90646165895905 H 0.0 **** 0.06
20680 H 64.77237733717982 168.1759521289511 127.39764466361504 H 0.0 **** 0.06
20681 C 68.8608057555827 159.88200954466663 122.6041442686473 C 0.0 **** -0.24
20682 H 68.12086515231852 160.4602899053224 122.05027115747086 H 0.0 **** 0.06
20683 H 68.54596968115217 158.83905900891924 122.64967586955257 H 0.0 **** 0.06
20684 H 68.94998976816663 160.27994316022506 123.61427431019283 H 0.0 **** 0.06
20685 H 69.82461629869047 159.94956525356096 122.09933029252832 H 0.0 **** 0.06
20686 C 48.78803902421964 156.78767679767026 109.5748269283994 C 0.0 **** -0.24
20687 H 47.98304013000238 157.37272202029803 109.1323503679408 H 0.0 **** 0.06
20688 H 49.723504309934015 157.34329864894713 109.50202746588576 H 0.0 **** 0.06
20689 H 48.884652229460855 155.84110963576586 109.04286529131215 H 0.0 **** 0.06
20690 H 48.562187293282534 156.59346340215973 110.62328094856906 H 0.0 **** 0.06
20691 C 172.19728176460504 168.48190898517223 14.986099924353482 C 0.0 **** -0.24
20692 H 172.52181966222372 169.0844816307175 15.834333994783634 H 0.0 **** 0.06
20693 H 171.18859529769873 168.111494473314 15.168474207593363 H 0.0 **** 0.06
20694 H 172.87739816972493 167.63872771898576 14.858335501813258 H 0.0 **** 0.06
20695 H 172.20375416659653 169.09283720365238 14.083065309212486 H 0.0 **** 0.06
20696 C 143.21903490285177 75.67125313760619 192.03656878044214 C 0.0 **** -0.24
20697 H 143.48710473026358 76.08387599161404 191.06322009620382 H 0.0 **** 0.06
20698 H 144.10788436210245 75.62255142272744 192.66618571167754 H 0.0 **** 0.06
20699 H 142.80915081437652 74.6699592855997 191.90672146901224 H 0.0 **** 0.06
20700 H 142.4737268606344 76.3112653476814 192.5084013432815 H 0.0 **** 0.06
20701 C 41.787727702753955 130.4801163049983 118.51739752061087 C 0.0 **** -0.24
20702 H 41.088477626071054 129.9024854235917 117.91222680636497 H 0.0 **** 0.06
20703 H 42.62977108209411 129.8488094307682 118.80111086130069 H 0.0 **** 0.06
20704 H 41.281420979339146 130.8360170776677 119.414804245315 H 0.0 **** 0.06
20705 H 42.14926320298427 131.33171294798743 117.94133249390018 H 0.0 **** 0.06
20706 C 167.14497933731258 179.52087399062563 96.57963335741226 C 0.0 **** -0.24
20707 H 167.23296097887763 179.6650133884254 97.6560086290691 H 0.0 **** 0.06
20708 H 166.35278296921285 180.16168161150873 96.19154805076994 H 0.0 **** 0.06
20709 H 166.90541471135134 178.47853863078342 96.37112087987475 H 0.0 **** 0.06
20710 H 168.08939679710844 179.77903172042267 96.09988556530266 H 0.0 **** 0.06
20711 C 41.49714704574723 34.32511911163925 142.72687639079723 C 0.0 **** -0.24
20712 H 41.6493516417255 34.88230626190534 141.80263404304742 H 0.0 **** 0.06
20713 H 42.10628719476193 34.76216917195205 143.5188961084533 H 0.0 **** 0.06
20714 H 41.78907307846825 33.28554590057635 142.57598760548868 H 0.0 **** 0.06
20715 H 40.445790359246104 34.37005057499118 143.0095722451289 H 0.0 **** 0.06
20716 C 140.42067962125384 85.89480763905061 161.53073740532247 C 0.0 **** -0.24
20717 H 140.39696080111412 86.53197684026861 160.64742122146745 H 0.0 **** 0.06
20718 H 139.46466778003594 85.38103361006682 161.63394738129693 H 0.0 **** 0.06
20719 H 140.6032152100678 86.50566544580795 162.41424188083863 H 0.0 **** 0.06
20720 H 141.2191433682857 85.15940279313094 161.4275915905992 H 0.0 **** 0.06
20721 C 31.52845984182605 78.35640080611343 106.66215570181467 C 0.0 **** -0.24
20722 H 31.57821383573932 77.5116862104548 107.34949294206766 H 0.0 **** 0.06
20723 H 32.44024001118315 78.94682828663167 106.74473879029426 H 0.0 **** 0.06
20724 H 30.667784244993257 78.97756186351998 106.9123739347989 H 0.0 **** 0.06
20725 H 31.42523356231284 77.9870944110424 105.64132622219898 H 0.0 **** 0.06
20726 C 102.06426710317811 116.67445457669123 107.12599924774878 C 0.0 **** -0.24
20727 H 101.99030905677478 117.58163371211424 107.72560236903115 H 0.0 **** 0.06
20728 H 101.78304351446457 116.89578852760394 106.0965118735119 H 0.0 **** 0.06
20729 H 101.39404230590992 115.91616167343466 107.53087611425715 H 0.0 **** 0.06
20730 H 103.0892727867888 116.3047218904398 107.15178237183079 H 0.0 **** 0.06
20731 C 67.25210518252095 185.52282312245364 110.46875215016345 C 0.0 **** -0.24
20732 H 67.65743283138852 184.75422339324408 109.81050550910356 H 0.0 **** 0.06
20733 H 66.28885927697178 185.85948000023134 110.08408323136797 H 0.0 **** 0.06
20734 H 67.94180751126856 186.3652998439518 110.5108512582998 H 0.0 **** 0.06
20735 H 67.12078858455163 185.11095505663192 111.46960645539721 H 0.0 **** 0.06
20736 C 170.82943272153886 148.14797792279833 194.95933391331232 C 0.0 **** -0.24
20737 H 171.00368551106575 148.67726148628648 194.0225417502799 H 0.0 **** 0.06
20738 H 170.2152996492312 148.7646965048306 195.61519245954742 H 0.0 **** 0.06
20739 H 171.7847928218798 147.94168567606084 195.44268191121625 H 0.0 **** 0.06
20740 H 170.3142204188914 147.2087196515762 194.75606836246084 H 0.0 **** 0.06
20741 C 117.09852499894231 81.74272653227055 196.441735919689 C 0.0 **** -0.24
20742 H 116.3670206175928 82.17517987148696 197.12364655202873 H 0.0 **** 0.06
20743 H 117.80621514831626 81.13496907138864 197.00668479417385 H 0.0 **** 0.06
20744 H 117.634570377855 82.54269370348169 195.93005674207828 H 0.0 **** 0.06
20745 H 116.58754988535887 81.12025016933941 195.70818069859902 H 0.0 **** 0.06
20746 C 26.640942298654394 3.9441884757617345 64.66292834053127 C 0.0 **** -0.24
20747 H 26.002687147704833 3.6090684924229777 65.48133879438058 H 0.0 **** 0.06
20748 H 26.370880858144844 3.411547898593085 63.751706912103145 H 0.0 **** 0.06
20749 H 27.68304566828587 3.7400044353775 64.90988408352393 H 0.0 **** 0.06
20750 H 26.50674849916507 5.0154360301488055 64.51306713028055 H 0.0 **** 0.06
20751 C 148.10087020674874 118.9008661535959 59.37176694996194 C 0.0 **** -0.24
20752 H 147.81433735671976 118.60551559834994 58.362643742318994 H 0.0 **** 0.06
20753 H 147.22484684101778 118.87727812486642 60.020172190859824 H 0.0 **** 0.06
20754 H 148.51211905969865 119.91004525048317 59.353015690213255 H 0.0 **** 0.06
20755 H 148.85329666027357 118.20936328738665 59.75301219160934 H 0.0 **** 0.06
20756 C 82.36258060001052 179.68841801021884 85.2501272877063 C 0.0 **** -0.24
20757 H 81.86662340866121 180.30403580121438 84.49958822431915 H 0.0 **** 0.06
20758 H 82.60089870717269 178.7148931082133 84.82126316554945 H 0.0 **** 0.06
20759 H 81.70114547540595 179.55659114342976 86.10671175317341 H 0.0 **** 0.06
20760 H 83.28135688363278 180.17909205681175 85.57278007745745 H 0.0 **** 0.06
20761 C 1.842129429114138 60.565219668857935 179.85474719990057 C 0.0 **** -0.24
20762 H 2.1946687891082775 59.73570160865097 180.46788541804236 H 0.0 **** 0.06
20763 H 0.8543082620804938 60.87467228227712 180.19711997742996 H 0.0 **** 0.06
20764 H 1.7837231749751368 60.24844555318646 178.81421199329554 H 0.0 **** 0.06
20765 H 2.535777613035542 61.40166504968266 179.94218867382043 H 0.0 **** 0.06
20766 C 100.76891832784489 163.4306601447784 72.50036765807278 C 0.0 **** -0.24
20767 H 101.47725266776345 163.7879566409922 73.24829571209212 H 0.0 **** 0.06
20768 H 100.1373225312089 162.65850811141607 72.9390471058617 H 0.0 **** 0.06
20769 H 101.31536830427672 163.01646783004978 71.6526974125761 H 0.0 **** 0.06
20770 H 100.14907728772181 164.2609985272108 72.16178983505121 H 0.0 **** 0.06
20771 C 139.768997280334 16.627843087744736 154.29488601293514 C 0.0 **** -0.24
20772 H 140.03454752273146 16.649628596659454 155.3512283417496 H 0.0 **** 0.06
20773 H 139.89361350226352 17.624263263866823 153.86881870442016 H 0.0 **** 0.06
20774 H 138.73055961826978 16.314743363937197 154.18763181648632 H 0.0 **** 0.06
20775 H 140.41708161054913 15.924962695611413 153.77175550402737 H 0.0 **** 0.06
20776 C 34.05468817656012 150.91388338553827 163.92812141375907 C 0.0 **** -0.24
20777 H 34.710015706619345 151.12274549406965 164.7742172409266 H 0.0 **** 0.06
20778 H 33.96212350523288 151.80828890699718 163.3124573692735 H 0.0 **** 0.06
20779 H 33.070132448442195 150.62197647394458 164.29517465397726 H 0.0 **** 0.06
20780 H 34.47561989435019 150.10385194396727 163.33318425969395 H 0.0 **** 0.06
20781 C 25.014030591041745 85.18889249977553 57.85776081394579 C 0.0 **** -0.24
20782 H 24.898478049083366 84.11323201376922 57.99161825991348 H 0.0 **** 0.06
20783 H 26.045919986367736 85.4709123911262 58.06597159647691 H 0.0 **** 0.06
20784 H 24.346903628672905 85.71332674491316 58.54178275672763 H 0.0 **** 0.06
20785 H 24.76384695233328 85.45515887330691 56.83048380047691 H 0.0 **** 0.06
20786 C 45.04797613084452 101.40069267563831 25.342348765833876 C 0.0 **** -0.24
20787 H 45.82674777763583 101.53646151789201 26.093801531037585 H 0.0 **** 0.06
20788 H 45.50750719527045 101.17805024607992 24.37975943764546 H 0.0 **** 0.06
20789 H 44.45814694582913 102.31421875363907 25.261835803349555 H 0.0 **** 0.06
20790 H 44.40033630176316 100.57500894399607 25.63608792876113 H 0.0 **** 0.06
20791 C 144.7575316640002 56.043870209628764 137.3971087212913 C 0.0 **** -0.24
20792 H 144.15568391045562 55.42374396869094 136.73241975665894 H 0.0 **** 0.06
20793 H 144.96364630355626 55.49593290556929 138.31703707047637 H 0.0 **** 0.06
20794 H 144.21387694769513 56.95858741589457 137.63159250735697 H 0.0 **** 0.06
20795 H 145.6975690724419 56.295760524913106 136.90552593413935 H 0.0 **** 0.06
20796 C 25.825006457196764 73.89375841947502 130.82478140770834 C 0.0 **** -0.24
20797 H 26.071290294839287 74.24961571075302 131.82554289641297 H 0.0 **** 0.06
20798 H 26.57583639210395 73.17244173845246 130.50162147062844 H 0.0 **** 0.06
20799 H 25.808928160245557 74.73655512703584 130.13413325655006 H 0.0 **** 0.06
20800 H 24.84514022754169 73.41702350874257 130.83963634286133 H 0.0 **** 0.06
20801 C 26.365811307262575 114.83234886512241 61.88326235968937 C 0.0 **** -0.24
20802 H 26.890773324947972 113.94742163094307 62.243637667176145 H 0.0 **** 0.06
20803 H 26.254213276489267 115.54550771314376 62.70021586335004 H 0.0 **** 0.06
20804 H 25.38063440804993 114.54531672871065 61.51346545998727 H 0.0 **** 0.06
20805 H 26.9375187790248 115.29016729541127 61.07588664895286 H 0.0 **** 0.06
20806 C 171.85710052700222 23.424602764190055 115.8708476611881 C 0.0 **** -0.24
20807 H 171.8264238317758 24.494976927181327 116.07375100671052 H 0.0 **** 0.06
20808 H 170.8591686373535 23.003174887892058 115.99644302618859 H 0.0 **** 0.06
20809 H 172.54629031418503 22.942934007764464 116.56448973689379 H 0.0 **** 0.06
20810 H 172.19532793494997 23.258391020679227 114.84803997623055 H 0.0 **** 0.06
20811 C 152.8095651299318 124.74554497252115 102.8830150814224 C 0.0 **** -0.24
20812 H 152.20438395090724 124.44254681510048 103.73720682260313 H 0.0 **** 0.06
20813 H 153.09263377617333 125.79225225781775 102.99135098908604 H 0.0 **** 0.06
20814 H 152.23293777534144 124.61738005030409 101.96612339659677 H 0.0 **** 0.06
20815 H 153.7072274332535 124.12894283825966 102.83572996375219 H 0.0 **** 0.06
20816 C 126.98198492929413 130.1618505393209 93.45603559710344 C 0.0 **** -0.24
20817 H 127.24280947432186 131.20863904718837 93.30105155712289 H 0.0 **** 0.06
20818 H 125.949153811917 130.09090536033483 93.79683369404711 H 0.0 **** 0.06
20819 H 127.6436102765883 129.7303403420132 94.20775665701035 H 0.0 **** 0.06
20820 H 127.09460018422442 129.61752235939272 92.5185963660083 H 0.0 **** 0.06
20821 C 133.0814801416605 94.69050553102022 167.0571997637798 C 0.0 **** -0.24
20822 H 132.3094375760388 94.09420212474399 167.5435774038694 H 0.0 **** 0.06
20823 H 133.81515795786285 94.02880995564067 166.59543842196598 H 0.0 **** 0.06
20824 H 133.5746624167526 95.32036555049916 167.79772274558673 H 0.0 **** 0.06
20825 H 132.62632699433647 95.31873335919357 166.29112267638294 H 0.0 **** 0.06
20826 C 189.61138112645042 97.1802645313592 112.6042581894616 C 0.0 **** -0.24
20827 H 188.58820498580224 97.46961937731413 112.84404985102765 H 0.0 **** 0.06
20828 H 190.2287997610589 97.25641554683793 113.49958044748911 H 0.0 **** 0.06
20829 H 190.00524245038028 97.8431076457847 111.83429849654277 H 0.0 **** 0.06
20830 H 189.62252646271102 96.15313680070852 112.24049855129903 H 0.0 **** 0.06
20831 C 49.9114661976995 111.75442741954362 0.8063600191677409 C 0.0 **** -0.24
20832 H 50.83426536700378 112.29152774779661 1.023674525507161 H 0.0 **** 0.06
20833 H 50.07733713372045 111.06974606725436 -0.026357217179743486 H 0.0 **** 0.06
20834 H 49.13031077373461 112.46724314406069 0.5410646336656981 H 0.0 **** 0.06
20835 H 49.60343895227027 111.18908688217192 1.6862060206920262 H 0.0 **** 0.06
20836 C 142.81942422805193 88.51390597557867 95.13013321738742 C 0.0 **** -0.24
20837 H 143.89430946218263 88.6239772179052 94.98876234366102 H 0.0 **** 0.06
20838 H 142.57824446442675 87.45911605378419 95.26669548471952 H 0.0 **** 0.06
20839 H 142.29682159939355 88.89628902666169 94.25442302791222 H 0.0 **** 0.06
20840 H 142.50975529668372 89.0741296649781 96.0122280237297 H 0.0 **** 0.06
20841 C 190.52044069840036 27.482586781871703 12.89679978808897 C 0.0 **** -0.24
20842 H 190.79293294110187 27.470212194605892 11.841575866222627 H 0.0 **** 0.06
20843 H 189.73922653470402 26.74431399856664 13.078756974642829 H 0.0 **** 0.06
20844 H 190.15351839966806 28.473624477693164 13.164954607728276 H 0.0 **** 0.06
20845 H 191.39526300992776 27.243677612666374 13.500451994282287 H 0.0 **** 0.06
20846 C 144.03489646086828 86.0762706797548 42.6883443354442 C 0.0 **** -0.24
20847 H 144.2396212426931 85.92196082820658 43.7477554526142 H 0.0 **** 0.06
20848 H 144.79309069715293 85.566094987165 42.09449760574243 H 0.0 **** 0.06
20849 H 144.05523486238837 87.14245982597208 42.465962446904044 H 0.0 **** 0.06
20850 H 143.0513771899274 85.6724262972921 42.4463231387773 H 0.0 **** 0.06
20851 C 145.06453685028444 130.22928570617466 136.7780189057967 C 0.0 **** -0.24
20852 H 145.4092548547775 129.38243561473297 136.18401796479395 H 0.0 **** 0.06
20853 H 145.80978659796708 131.02344997220558 136.74470832114818 H 0.0 **** 0.06
20854 H 144.91521420065874 129.9126749146542 137.80988130823016 H 0.0 **** 0.06
20855 H 144.12193996002108 130.5979821136114 136.37151087643534 H 0.0 **** 0.06
20856 C 64.98431334875009 167.2620671467949 123.66601128036152 C 0.0 **** -0.24
20857 H 64.25781781071127 166.94643134901867 124.41471546497505 H 0.0 **** 0.06
20858 H 65.81736960858576 166.5590621516654 123.64967313593795 H 0.0 **** 0.06
20859 H 65.35260587206567 168.25737417594047 123.9142132395148 H 0.0 **** 0.06
20860 H 64.50859456172921 167.28428978002432 122.68557083250525 H 0.0 **** 0.06
20861 C 3.886139437516192 100.28848677306942 95.74149371370004 C 0.0 **** -0.24
20862 H 4.798729326504187 99.69682429227507 95.80986676353416 H 0.0 **** 0.06
20863 H 3.959994068245649 101.14839412831125 96.40715617627558 H 0.0 **** 0.06
20864 H 3.033049783680866 99.6755023711766 96.03348834101837 H 0.0 **** 0.06
20865 H 3.752470705006779 100.63228779523399 94.71531963928373 H 0.0 **** 0.06
20866 C 74.38522129463729 49.834351542801016 60.5948550914552 C 0.0 **** -0.24
20867 H 75.12474137776724 50.186068393188265 61.31354971703189 H 0.0 **** 0.06
20868 H 74.65794672708716 50.17485042013095 59.59541571908278 H 0.0 **** 0.06
20869 H 73.40490896892084 50.22940274614268 60.85858590371316 H 0.0 **** 0.06
20870 H 74.35361414604563 48.74477673095282 60.6111156913712 H 0.0 **** 0.06
20871 C 138.02709638273882 127.74665147809628 32.709152164023806 C 0.0 **** -0.24
20872 H 138.57032266955423 127.77883059652459 33.65435606746479 H 0.0 **** 0.06
20873 H 138.24652300864489 128.6463553660294 32.13337740383503 H 0.0 **** 0.06
20874 H 136.9562943660942 127.69343375512972 32.90801799010404 H 0.0 **** 0.06
20875 H 138.33581573763433 126.86828906618496 32.14299803349354 H 0.0 **** 0.06
20876 C 81.40033720890028 148.05699044210974 2.7463263783828893 C 0.0 **** -0.24
20877 H 81.56361973326997 149.13499900309228 2.721932338541052 H 0.0 **** 0.06
20878 H 81.70209977030865 147.6217075845143 1.794146325668308 H 0.0 **** 0.06
20879 H 80.34393366043128 147.8544413508643 2.921600685770045 H 0.0 **** 0.06
20880 H 81.99185244846697 147.61886729543926 3.55075010388493 H 0.0 **** 0.06
20881 C 85.59450165736368 131.31590661860875 188.11546126046633 C 0.0 **** -0.24
20882 H 86.43088673719606 131.4459173609374 188.8031857079507 H 0.0 **** 0.06
20883 H 84.73717875660964 131.88343797620064 188.47614985832195 H 0.0 **** 0.06
20884 H 85.33388025234396 130.2590075031227 188.05816005365944 H 0.0 **** 0.06
20885 H 85.87928081215674 131.67459033001964 187.12683519891235 H 0.0 **** 0.06
20886 C 53.07556426055244 93.15285999475313 50.450860649557114 C 0.0 **** -0.24
20887 H 52.00841404085503 92.94090953156328 50.38715754638213 H 0.0 **** 0.06
20888 H 53.24152306950623 93.98132556549112 51.138518359020225 H 0.0 **** 0.06
20889 H 53.452089488473845 93.41861101427008 49.46262795930744 H 0.0 **** 0.06
20890 H 53.60033945191728 92.26861330419189 50.81370150873602 H 0.0 **** 0.06
20891 C 42.12936761498433 155.48846382480565 160.2161461675042 C 0.0 **** -0.24
20892 H 42.49265181262666 154.47028608194717 160.35616531469844 H 0.0 **** 0.06
20893 H 42.83365419294881 156.1902553647062 160.66370482164876 H 0.0 **** 0.06
20894 H 41.15549022577517 155.59578632964832 160.69346721914764 H 0.0 **** 0.06
20895 H 42.03574645817923 155.69768737424678 159.14984400640452 H 0.0 **** 0.06
20896 C 184.47407317180426 76.85363774136543 1.1033214500954216 C 0.0 **** -0.24
20897 H 184.44548502707568 76.35675181062996 0.13412190942364077 H 0.0 **** 0.06
20898 H 183.83719636857714 77.73791713145425 1.0769096437537087 H 0.0 **** 0.06
20899 H 185.4988371490709 77.1497609279879 1.329349212163038 H 0.0 **** 0.06
20900 H 184.11535946054227 76.16949695550299 1.8723874697795395 H 0.0 **** 0.06
20901 C 73.95798802317323 8.851062594026587 65.23024277614361 C 0.0 **** -0.24
20902 H 73.29606459045978 8.476568914018912 64.44948382973732 H 0.0 **** 0.06
20903 H 73.72189365022335 9.895757941613681 65.4347196164679 H 0.0 **** 0.06
20904 H 74.99308503270404 8.769851579527682 64.89842409854299 H 0.0 **** 0.06
20905 H 73.819406230878 8.262732225464163 66.13682488920506 H 0.0 **** 0.06
20906 C 29.313866022264833 132.7343119705623 100.89032574230671 C 0.0 **** -0.24
20907 H 28.707433555246254 132.32542049831352 100.08189076147818 H 0.0 **** 0.06
20908 H 30.36206309368137 132.7427993717026 100.58889319711048 H 0.0 **** 0.06
20909 H 29.19581310688514 132.11754580170611 101.78116561613089 H 0.0 **** 0.06
20910 H 28.99042556694036 133.75265688853816 101.10722109679031 H 0.0 **** 0.06
20911 C 42.94252505517558 100.47674003973634 130.4904445240904 C 0.0 **** -0.24
20912 H 43.02104890012545 100.00034934113106 129.51276737437382 H 0.0 **** 0.06
20913 H 42.22398883932682 101.29445246202368 130.4384659371259 H 0.0 **** 0.06
20914 H 43.91714500564541 100.86635888778221 130.7840850928294 H 0.0 **** 0.06
20915 H 42.60724492586549 99.74451316989067 131.22448656160097 H 0.0 **** 0.06
20916 C 17.14250888961203 10.016851759372315 175.4220974416927 C 0.0 **** -0.24
20917 H 16.2069379519599 10.457892727843756 175.07595787453428 H 0.0 **** 0.06
20918 H 16.959622614957425 8.996681877164747 175.75966625730715 H 0.0 **** 0.06
20919 H 17.537445526101664 10.60761217973436 176.2487375481759 H 0.0 **** 0.06
20920 H 17.863866577383817 10.007204233209535 174.60520535180174 H 0.0 **** 0.06
20921 C 59.15506487712659 46.32077489776141 153.8752565578917 C 0.0 **** -0.24
20922 H 59.07860757146844 45.78859880974744 152.9270600725722 H 0.0 **** 0.06
20923 H 60.19432668955412 46.597150997754 154.05454077219343 H 0.0 **** 0.06
20924 H 58.80561061199714 45.676161087300486 154.68205234635218 H 0.0 **** 0.06
20925 H 58.54018299368313 47.220526744977846 153.8369083268193 H 0.0 **** 0.06
20926 C 99.48610723177475 41.698309055151526 69.42129404100103 C 0.0 **** -0.24
20927 H 99.59562460006708 42.624342834432525 68.85734097856971 H 0.0 **** 0.06
20928 H 100.00712252878003 40.89330654513205 68.9007954807193 H 0.0 **** 0.06
20929 H 98.42850980108147 41.44936286397578 69.50877061851185 H 0.0 **** 0.06
20930 H 99.91364677541003 41.82467721399604 70.41594911151293 H 0.0 **** 0.06
20931 C 96.18543490881456 20.438718688577012 186.4861406723729 C 0.0 **** -0.24
20932 H 95.26861179107601 20.995594685239723 186.68007411822776 H 0.0 **** 0.06
20933 H 96.48431811958878 20.583815174124368 185.44699940966987 H 0.0 **** 0.06
20934 H 96.01221735884909 19.378236313590776 186.6705790273535 H 0.0 **** 0.06
20935 H 96.97558012233333 20.798357552035156 187.14526669377608 H 0.0 **** 0.06
20936 C 124.92602211788795 27.221672743283193 103.44143333240581 C 0.0 **** -0.24
20937 H 123.96763532201629 26.780581193519197 103.71753603511942 H 0.0 **** 0.06
20938 H 125.55180701136229 26.463671769475013 102.96960021763385 H 0.0 **** 0.06
20939 H 125.42187686759158 27.599965027489844 104.33482780084609 H 0.0 **** 0.06
20940 H 124.75922902415553 28.04196196743652 102.74331562449305 H 0.0 **** 0.06
20941 C 135.73439236650017 58.20034771735499 77.0722300741752 C 0.0 **** -0.24
20942 H 136.08581413618856 59.18166328955226 77.38893994355533 H 0.0 **** 0.06
20943 H 135.01616636186282 58.315848909250406 76.25946590209259 H 0.0 **** 0.06
20944 H 135.25582635981476 57.697419160582 77.91254675626527 H 0.0 **** 0.06
20945 H 136.5805942964165 57.605650044299836 76.7271595468689 H 0.0 **** 0.06
20946 C 112.39989373458255 78.53073858027562 58.84972965933264 C 0.0 **** -0.24
20947 H 113.15378466494357 78.99635758370044 58.21446270411877 H 0.0 **** 0.06
20948 H 111.5963162447375 78.13560702126267 58.229092947078 H 0.0 **** 0.06
20949 H 111.99671369806293 79.27285463729146 59.53834586957886 H 0.0 **** 0.06
20950 H 112.85645632162351 77.71853535772374 59.4165931711468 H 0.0 **** 0.06
20951 C 175.54465069164544 129.31464973942036 139.36508259684194 C 0.0 **** -0.24
20952 H 174.8684337196956 129.50135613296004 138.53029158628806 H 0.0 **** 0.06
20953 H 176.41605198364746 129.9648502180445 139.27874697483784 H 0.0 **** 0.06
20954 H 175.86542466934188 128.27350602138085 139.34604376054213 H 0.0 **** 0.06
20955 H 175.02914174044338 129.51923873318174 140.3033312542812 H 0.0 **** 0.06
20956 C 54.422364379427236 42.18177936551129 3.212734171359635 C 0.0 **** -0.24
20957 H 54.80195407470207 43.16644398829396 3.483984807036066 H 0.0 **** 0.06
20958 H 55.25695942056534 41.52619417985457 2.9669663243958553 H 0.0 **** 0.06
20959 H 53.76391427056787 42.272364964040264 2.3487432056352517 H 0.0 **** 0.06
20960 H 53.865140344752376 41.76374907086125 4.051573099573616 H 0.0 **** 0.06
20961 C 142.43863990726405 195.99832937467284 86.77254191709503 C 0.0 **** -0.24
20962 H 142.64313556040838 196.82507055300903 87.45324981830572 H 0.0 **** 0.06
20963 H 141.85444042394494 195.23751876980737 87.29110231814045 H 0.0 **** 0.06
20964 H 143.37933998647134 195.5669539356114 86.43269895462734 H 0.0 **** 0.06
20965 H 141.8760804574169 196.36649093895983 85.91353630051813 H 0.0 **** 0.06
20966 C 44.08608803516178 30.46110979556572 45.92982527241365 C 0.0 **** -0.24
20967 H 43.51763654503941 30.002590176447896 46.73933583885919 H 0.0 **** 0.06
20968 H 45.02303033365067 29.922365322908206 45.7929706873995 H 0.0 **** 0.06
20969 H 44.297089830676185 31.500954607873624 46.177792353517674 H 0.0 **** 0.06
20970 H 43.50416014469032 30.418592810606654 45.00894638435473 H 0.0 **** 0.06
20971 C 94.61017642569362 68.44617789180643 47.38810924594134 C 0.0 **** -0.24
20972 H 94.39679778715396 67.41298089514842 47.66024190294485 H 0.0 **** 0.06
20973 H 93.80470863641688 69.0895075163571 47.742469683281655 H 0.0 **** 0.06
20974 H 94.68929271650137 68.52767888711514 46.30355269804056 H 0.0 **** 0.06
20975 H 95.54989706405357 68.75542411338645 47.84468077195763 H 0.0 **** 0.06
20976 C 16.317815421279363 58.936561823912825 193.04936017204196 C 0.0 **** -0.24
20977 H 17.154386050864574 58.635942841220185 193.67953830159183 H 0.0 **** 0.06
20978 H 15.80552550675307 59.78288035442597 193.50696663032747 H 0.0 **** 0.06
20979 H 15.623204375173941 58.103284210520314 192.94649335919777 H 0.0 **** 0.06
20980 H 16.6887873640389 59.22361092170638 192.06626135663427 H 0.0 **** 0.06
20981 C 12.744224316494488 18.0444146648326 171.0016127182938 C 0.0 **** -0.24
20982 H 12.433261766441241 17.324530453320847 171.75912754390964 H 0.0 **** 0.06
20983 H 12.939936947994006 17.52347632562561 170.06415311714795 H 0.0 **** 0.06
20984 H 13.650272211702202 18.551353401581878 171.33299316868778 H 0.0 **** 0.06
20985 H 11.951278226289737 18.777985274901482 170.8513117862159 H 0.0 **** 0.06
20986 C 18.998230950110894 102.39642842625352 70.95604319468873 C 0.0 **** -0.24
20987 H 18.631724402787825 101.67453170506798 71.68598275434572 H 0.0 **** 0.06
20988 H 19.01289835649544 101.93704257023435 69.96812307337107 H 0.0 **** 0.06
20989 H 20.00669712219161 102.7079682534106 71.22858971071268 H 0.0 **** 0.06
20990 H 18.340739255956663 103.26592981381168 70.94352521740247 H 0.0 **** 0.06
20991 C 157.86982113540304 190.4029963686972 97.9198428984759 C 0.0 **** -0.24
20992 H 157.356274250756 191.3330643961056 98.16362711831857 H 0.0 **** 0.06
20993 H 158.42099557410035 190.52691468798628 96.98700116622922 H 0.0 **** 0.06
20994 H 157.1375174061523 189.60376336867526 97.8062843735662 H 0.0 **** 0.06
20995 H 158.5637687044554 190.15001571816396 98.72093354693175 H 0.0 **** 0.06
20996 C 103.19210868385215 159.702685207387 165.37281366512144 C 0.0 **** -0.24
20997 H 103.19712656728706 160.4690553286698 164.59825680939272 H 0.0 **** 0.06
20998 H 103.32149288547268 160.17066331812288 166.3484867094797 H 0.0 **** 0.06
20999 H 104.00800780817971 159.00186499982303 165.1943722168739 H 0.0 **** 0.06
21000 H 102.2426537647049 159.16813768553249 165.34902336087313 H 0.0 **** 0.06
21001 C 186.56018168635396 132.121191350749 49.77671189587102 C 0.0 **** -0.24
21002 H 186.49472523781404 132.68283363609012 50.70927026233926 H 0.0 **** 0.06
21003 H 186.43444634343996 132.80138782562742 48.93413960343656 H 0.0 **** 0.06
21004 H 185.7764735939818 131.36420677324224 49.75307610109431 H 0.0 **** 0.06
21005 H 187.53512128512767 131.63817559107133 49.711979872825566 H 0.0 **** 0.06
21006 C 76.50553993127927 139.45410201451205 92.92734525931337 C 0.0 **** -0.24
21007 H 77.11515780448686 139.5865676774904 93.82098364924843 H 0.0 **** 0.06
21008 H 76.3642099131831 140.41886513305093 92.43883869736862 H 0.0 **** 0.06
21009 H 75.5349981709673 139.04306249850697 93.20671402719978 H 0.0 **** 0.06
21010 H 77.00628762271772 138.76972563166714 92.24351167635811 H 0.0 **** 0.06
21011 C 45.0886243082423 29.28186980954706 109.58100410110865 C 0.0 **** -0.24
21012 H 44.68127653678536 29.733573932409627 108.6770805213767 H 0.0 **** 0.06
21013 H 45.1687970338466 30.038543196292324 110.36158875786009 H 0.0 **** 0.06
21014 H 46.07672699469855 28.872458457052346 109.36820106399324 H 0.0 **** 0.06
21015 H 44.42938619330103 28.48148088393407 109.91679772097433 H 0.0 **** 0.06
21016 C 4.269531895011369 58.6581644793324 3.1144142110439788 C 0.0 **** -0.24
21017 H 4.149626679083326 59.37194626262179 3.929580447399637 H 0.0 **** 0.06
21018 H 5.0825870583702795 58.983569639922976 2.4644053692170047 H 0.0 **** 0.06
21019 H 3.345213335579473 58.60394771758152 2.5394268879528425 H 0.0 **** 0.06
21020 H 4.501845509826069 57.6750924377519 3.5232019492614413 H 0.0 **** 0.06
21021 C 61.058221852833015 71.2887554499109 137.26458276596202 C 0.0 **** -0.24
21022 H 60.343630928987295 70.86994215007208 137.9731862623541 H 0.0 **** 0.06
21023 H 61.26100680557025 70.5591964277682 136.47980215745577 H 0.0 **** 0.06
21024 H 61.983810469687114 71.53156940016804 137.78418138736063 H 0.0 **** 0.06
21025 H 60.64149692512021 72.19250709827313 136.8208802105599 H 0.0 **** 0.06
21026 C 140.03793482337818 2.590951574930898 39.831093041152144 C 0.0 **** -0.24
21027 H 140.3140474521615 2.3315773681334235 40.852630850888914 H 0.0 **** 0.06
21028 H 139.3274047647082 3.417739820831713 39.84592295616348 H 0.0 **** 0.06
21029 H 139.58082437618455 1.7274234899194028 39.34697633291147 H 0.0 **** 0.06
21030 H 140.92943959997172 2.888045935868604 39.278645885848746 H 0.0 **** 0.06
21031 C 99.53559931472046 75.95586401902241 39.86241043357083 C 0.0 **** -0.24
21032 H 98.8691847130882 76.65347605457237 39.35579450961495 H 0.0 **** 0.06
21033 H 100.43479854009152 75.81249837971127 39.26128334217992 H 0.0 **** 0.06
21034 H 99.02963203640937 74.99912788914708 39.99215547239953 H 0.0 **** 0.06
21035 H 99.810013707856 76.3577671190553 40.83692430564682 H 0.0 **** 0.06
21036 C 66.32410661802669 149.2853886361344 138.82142773387534 C 0.0 **** -0.24
21037 H 65.71812721158409 150.16823701091297 139.02391817401136 H 0.0 **** 0.06
21038 H 66.94598364429942 149.46493297012452 137.9440267458785 H 0.0 **** 0.06
21039 H 65.67116912360063 148.43161983486021 138.63642726272695 H 0.0 **** 0.06
21040 H 66.95996198044077 149.07612794782335 139.68090116367435 H 0.0 **** 0.06
21041 C 193.74509762224935 18.403671373638076 158.22547024560424 C 0.0 **** -0.24
21042 H 193.83586277596442 19.12625389455212 157.41407583896142 H 0.0 **** 0.06
21043 H 192.70019998302564 18.326002972774248 158.52651548036775 H 0.0 **** 0.06
21044 H 194.34561657117507 18.731186089474093 159.07326901528438 H 0.0 **** 0.06
21045 H 194.09805706754724 17.43048857197627 157.88455597159674 H 0.0 **** 0.06
21046 C 39.64854870334858 27.463948599872424 170.24574423779592 C 0.0 **** -0.24
21047 H 39.31069218225133 26.44835657384742 170.0413757624896 H 0.0 **** 0.06
21048 H 39.178949012337924 28.151606460880956 169.54211828102538 H 0.0 **** 0.06
21049 H 40.73231018458148 27.514420239168203 170.1350131460461 H 0.0 **** 0.06
21050 H 39.37404761959172 27.740758999702024 171.2629466803116 H 0.0 **** 0.06
21051 C 49.826805777008076 194.71166118298868 137.3072876699353 C 0.0 **** -0.24
21052 H 50.06614688009306 195.73170330025022 137.6087783164302 H 0.0 **** 0.06
21053 H 48.7822396676964 194.5011652248288 137.53496234806883 H 0.0 **** 0.06
21054 H 50.46528129534052 194.01377174269732 137.84909762493547 H 0.0 **** 0.06
21055 H 49.99468971105014 194.60127059626026 136.235980718271 H 0.0 **** 0.06
21056 C 160.70047173993896 56.23834078231869 1.3965411390651354 C 0.0 **** -0.24
21057 H 161.64791716956594 56.735114816102055 1.6067420210840169 H 0.0 **** 0.06
21058 H 160.82376708343864 55.568099149638215 0.545509936986825 H 0.0 **** 0.06
21059 H 159.94188312248488 56.985108683560725 1.1645052177498627 H 0.0 **** 0.06
21060 H 160.38977042718108 55.663773312125215 2.2688693962882738 H 0.0 **** 0.06
21061 C 153.94775086216416 66.84686177779251 191.8793520124815 C 0.0 **** -0.24
21062 H 154.6835906026292 67.56155375455768 192.24688421546063 H 0.0 **** 0.06
21063 H 154.1891473758416 66.57455665894688 190.85156344364003 H 0.0 **** 0.06
21064 H 152.9559435666771 67.29621318280795 191.91393896810672 H 0.0 **** 0.06
21065 H 153.9644266560136 65.95399602835374 192.50447468623986 H 0.0 **** 0.06
21066 C 22.387839052421782 48.19352740449409 114.49896934424578 C 0.0 **** -0.24
21067 H 22.143749508331666 47.28270755275665 115.04630762037925 H 0.0 **** 0.06
21068 H 23.114965886074913 48.77347450583822 115.0671661458739 H 0.0 **** 0.06
21069 H 21.483447495266887 48.784523677403755 114.35615832177643 H 0.0 **** 0.06
21070 H 22.808927399222625 47.93261091933276 113.52894726402928 H 0.0 **** 0.06
21071 C 118.53536414385113 8.253390835498948 18.251354811376032 C 0.0 **** -0.24
21072 H 117.45674241838816 8.147273875763375 18.13438450621703 H 0.0 **** 0.06
21073 H 119.03820342352111 7.419820121895043 17.76018047910587 H 0.0 **** 0.06
21074 H 118.78736311655109 8.256247428523437 19.311750981076358 H 0.0 **** 0.06
21075 H 118.85896770566887 9.19119776712597 17.798979312309584 H 0.0 **** 0.06
21076 C 112.79790803124862 42.555979872822945 178.196538990656 C 0.0 **** -0.24
21077 H 112.1051619960408 41.73195945752221 178.36849240370043 H 0.0 **** 0.06
21078 H 113.8214111528136 42.17958726959833 178.218463531454 H 0.0 **** 0.06
21079 H 112.66928053476215 43.30784734754434 178.97490904497016 H 0.0 **** 0.06
21080 H 112.59541272257107 43.0026599789133 177.22311348516382 H 0.0 **** 0.06
21081 C 79.50686704292673 8.565248673530931 6.2417796384294775 C 0.0 **** -0.24
21082 H 80.2313068954281 9.164837882096549 5.689893435819791 H 0.0 **** 0.06
21083 H 79.74994707538735 8.587079346518692 7.303645063375534 H 0.0 **** 0.06
21084 H 79.53807143773389 7.536477584110855 5.882231276151373 H 0.0 **** 0.06
21085 H 78.50724081046783 8.97241264569658 6.088493674399601 H 0.0 **** 0.06
21086 C 98.3070289907098 2.6607120612913633 188.1694793276253 C 0.0 **** -0.24
21087 H 98.68025300544608 1.6973720916690525 187.82213566901243 H 0.0 **** 0.06
21088 H 97.8130979882761 3.1779325995458123 187.34685440457753 H 0.0 **** 0.06
21089 H 99.14040603816798 3.2638686844529303 188.53031790104154 H 0.0 **** 0.06
21090 H 97.59523225522705 2.503749024249082 188.97971922280595 H 0.0 **** 0.06
21091 C 12.483020104469091 177.3108316513561 97.2420276648619 C 0.0 **** -0.24
21092 H 11.44964692665792 177.54511714205037 96.99038342642893 H 0.0 **** 0.06
21093 H 13.089986848961445 177.32315280911985 96.33686125042345 H 0.0 **** 0.06
21094 H 12.530953028239708 176.32085360156665 97.69754562925482 H 0.0 **** 0.06
21095 H 12.862804120555552 178.05234266790035 97.94527527932553 H 0.0 **** 0.06
21096 C 182.0977263845167 41.79377051179051 183.32550407553987 C 0.0 **** -0.24
21097 H 182.1075363241738 41.199161999647544 182.41205338528516 H 0.0 **** 0.06
21098 H 181.26802262027488 41.474491389858684 183.95712359227986 H 0.0 **** 0.06
21099 H 181.97729170009296 42.84666810746816 183.0724649460547 H 0.0 **** 0.06
21100 H 183.03704307501204 41.65343404853871 183.85990888791412 H 0.0 **** 0.06
21101 C 13.175687748663059 64.78548261002987 192.61030822999197 C 0.0 **** -0.24
21102 H 12.849916286766408 65.70051747695271 192.11660912245645 H 0.0 **** 0.06
21103 H 12.658700999867143 64.68553006487133 193.5651002962187 H 0.0 **** 0.06
21104 H 14.251348633237157 64.82885765122808 192.7819909490648 H 0.0 **** 0.06
21105 H 12.942033057664574 63.92857775773177 191.97927160673922 H 0.0 **** 0.06
21106 C 178.38561052463535 89.56496732883403 54.790906925542515 C 0.0 **** -0.24
21107 H 179.23421333840594 89.72001700330844 55.45741090269735 H 0.0 **** 0.06
21108 H 178.3884857983495 88.53522857782946 54.43370597817645 H 0.0 **** 0.06
21109 H 178.46233290929442 90.24550879700007 53.942595261059694 H 0.0 **** 0.06
21110 H 177.45926551973494 89.76019960779047 55.330532681860376 H 0.0 **** 0.06
21111 C 3.07693741364551 79.30514251441406 163.71955688047493 C 0.0 **** -0.24
21112 H 2.4999064054779865 78.9649322162428 162.85925294190858 H 0.0 **** 0.06
21113 H 3.801614822051704 80.05337944707034 163.39830334939973 H 0.0 **** 0.06
21114 H 3.6005564182352146 78.45827979579641 164.1624172904278 H 0.0 **** 0.06
21115 H 2.4047408547892246 79.74280254112605 164.45659564308414 H 0.0 **** 0.06
21116 C 111.39920386292678 128.51310426407576 100.82346018606856 C 0.0 **** -0.24
21117 H 111.19284830106122 127.55603458169082 100.34314496387069 H 0.0 **** 0.06
21118 H 110.46581969227222 128.94667473507957 101.18492160396033 H 0.0 **** 0.06
21119 H 111.85936207254142 129.18861236667817 100.10278973913191 H 0.0 **** 0.06
21120 H 112.07772119850986 128.35893484926373 101.66253747774039 H 0.0 **** 0.06
21121 C 15.841233080159569 43.646619084451345 0.33748213662553894 C 0.0 **** -0.24
21122 H 15.06907575034279 43.60482554283544 1.105829743626714 H 0.0 **** 0.06
21123 H 16.814886300744178 43.78911182280086 0.8072554086672881 H 0.0 **** 0.06
21124 H 15.637616511212045 44.47732137344843 -0.33817508480137803 H 0.0 **** 0.06
21125 H 15.84330995583062 42.71337296821599 -0.22575321141238192 H 0.0 **** 0.06
21126 C 113.11502586461262 83.72504504235559 72.68314768174365 C 0.0 **** -0.24
21127 H 113.68250510030762 82.87116956120502 72.31349966670615 H 0.0 **** 0.06
21128 H 112.30120889144624 83.37396497358756 73.31841961088823 H 0.0 **** 0.06
21129 H 112.70359746511636 84.27946083797053 71.83888616500384 H 0.0 **** 0.06
21130 H 113.77190808859802 84.3757301729253 73.2595054393637 H 0.0 **** 0.06
21131 C 20.890467906552573 15.353576523043657 172.76127881695234 C 0.0 **** -0.24
21132 H 21.908768200351517 14.978205089261607 172.86689841729498 H 0.0 **** 0.06
21133 H 20.90503926595369 16.288949090588588 172.20102839309794 H 0.0 **** 0.06
21134 H 20.46329048814181 15.527230948729752 173.7483706322665 H 0.0 **** 0.06
21135 H 20.287009425480306 14.619931425140578 172.22781711261686 H 0.0 **** 0.06
21136 C 5.51817476575372 129.3836495800184 100.15449700649012 C 0.0 **** -0.24
21137 H 4.642632986621905 129.32657100620122 99.50773251112594 H 0.0 **** 0.06
21138 H 5.580860847142624 130.37955019398532 100.59280751227197 H 0.0 **** 0.06
21139 H 6.415483911141138 129.18584053058225 99.56845302173903 H 0.0 **** 0.06
21140 H 5.432003519656611 128.64155468201875 100.94805756246251 H 0.0 **** 0.06
21141 C 20.32670386016801 132.65993220785958 47.49255118017858 C 0.0 **** -0.24
21142 H 21.117901368150143 132.32056794344146 48.16222730690632 H 0.0 **** 0.06
21143 H 20.046436034686735 131.84821319981938 46.82167349563373 H 0.0 **** 0.06
21144 H 20.685614243979558 133.50717436397792 46.908140580407704 H 0.0 **** 0.06
21145 H 19.45975901729105 132.96321606099565 48.07871771447212 H 0.0 **** 0.06
21146 C 126.78312773670768 146.16557033597903 39.92799892432883 C 0.0 **** -0.24
21147 H 126.58818985296872 145.57968835925374 39.02986240410395 H 0.0 **** 0.06
21148 H 127.40607262374263 147.02340304147117 39.672414448113855 H 0.0 **** 0.06
21149 H 127.29950329286319 145.54617053140973 40.66019002829191 H 0.0 **** 0.06
21150 H 125.8391250307163 146.51363524068898 40.346617346274016 H 0.0 **** 0.06
21151 C 85.0229127021496 131.1278944509567 198.38301581963776 C 0.0 **** -0.24
21152 H 86.08792037440583 130.9495447104021 198.23202665933516 H 0.0 **** 0.06
21153 H 84.45360447787829 130.58984804725787 197.62410282925208 H 0.0 **** 0.06
21154 H 84.81910028690461 132.19554286532073 198.3030030780449 H 0.0 **** 0.06
21155 H 84.732363937636 130.77636079709075 199.37329113468525 H 0.0 **** 0.06
21156 C 38.48570664187531 30.672156676405024 148.01488307300068 C 0.0 **** -0.24
21157 H 38.42636661841013 31.73969082504692 148.23050616720596 H 0.0 **** 0.06
21158 H 39.435005222127245 30.453575432038036 147.52558854724475 H 0.0 **** 0.06
21159 H 37.66366991208611 30.387188838077464 147.3589405381086 H 0.0 **** 0.06
21160 H 38.41852650289434 30.1098826649104 148.94608522118543 H 0.0 **** 0.06
21161 C 195.02378211887782 137.13654620053646 119.01982354022238 C 0.0 **** -0.24
21162 H 194.39066486988918 137.89725655647254 119.47452008305183 H 0.0 **** 0.06
21163 H 195.71061399532914 137.60820398699627 118.31693408123928 H 0.0 **** 0.06
21164 H 194.40191928371752 136.41372202303205 118.4915551346619 H 0.0 **** 0.06
21165 H 195.59306029646245 136.62620558280003 119.79732821094291 H 0.0 **** 0.06
21166 C 154.42761564526973 71.00249034027058 95.15749798895288 C 0.0 **** -0.24
21167 H 153.89709968391492 71.56597742517371 95.92488954277573 H 0.0 **** 0.06
21168 H 153.84178389939166 71.0022816381498 94.23730407223474 H 0.0 **** 0.06
21169 H 154.57332778164715 69.97654988856196 95.49600478510499 H 0.0 **** 0.06
21170 H 155.39702037640302 71.46473044107866 94.97123946209479 H 0.0 **** 0.06
21171 C 143.9867813580561 127.21924651969329 131.35215424343826 C 0.0 **** -0.24
21172 H 143.92248371501537 128.06605366872043 130.66922149621493 H 0.0 **** 0.06
21173 H 144.47557839843995 126.38393969716657 130.8512444347932 H 0.0 **** 0.06
21174 H 142.98328012300152 126.9229378494714 131.6583586453383 H 0.0 **** 0.06
21175 H 144.56543448336635 127.50486752712123 132.23184619521675 H 0.0 **** 0.06
21176 C 115.02374519362974 9.722737553207736 88.81827027000682 C 0.0 **** -0.24
21177 H 114.52117292858964 9.813231301549592 89.78120727749365 H 0.0 **** 0.06
21178 H 115.91550967964076 9.106762738036082 88.92951678922407 H 0.0 **** 0.06
21179 H 115.30785064037116 10.714151063082085 88.46449768150248 H 0.0 **** 0.06
21180 H 114.34904498381593 9.260663607351916 88.09824043885789 H 0.0 **** 0.06
21181 C 150.4718114699619 191.1521251825842 75.88023101283198 C 0.0 **** -0.24
21182 H 150.6031808364677 190.46247714847368 76.71483414590155 H 0.0 **** 0.06
21183 H 151.36446935585712 191.76879412898143 75.77501222399786 H 0.0 **** 0.06
21184 H 149.60897715178066 191.79027128987923 76.06969910208099 H 0.0 **** 0.06
21185 H 150.31131427038736 190.5854432067729 74.9631732911981 H 0.0 **** 0.06
21186 C 91.17223926499528 54.25991089086273 35.173134537966746 C 0.0 **** -0.24
21187 H 91.066973503246 54.561987778474816 34.131578329415476 H 0.0 **** 0.06
21188 H 91.42265687844585 55.130574340121115 35.77985018460916 H 0.0 **** 0.06
21189 H 91.96562524018597 53.51823085549958 35.25838753851937 H 0.0 **** 0.06
21190 H 90.23345250880351 53.83103990041283 35.52379218389828 H 0.0 **** 0.06
21191 C 7.136689473887998 78.97208465481208 70.72486336543093 C 0.0 **** -0.24
21192 H 6.85531945531028 79.70622184974616 69.97043367589563 H 0.0 **** 0.06
21193 H 6.609566544325361 78.03706262570205 70.53619991838173 H 0.0 **** 0.06
21194 H 6.870046510735563 79.34698427909746 71.71321476678465 H 0.0 **** 0.06
21195 H 8.211900008211444 78.79947520849942 70.67946551753498 H 0.0 **** 0.06
21196 C 190.0573998637567 130.25686832355376 64.27917629269567 C 0.0 **** -0.24
21197 H 191.0728867507845 130.1299826936321 63.904480291828975 H 0.0 **** 0.06
21198 H 189.8147582735631 131.31896207753823 64.31933358409813 H 0.0 **** 0.06
21199 H 189.9817257028135 129.82803935539891 65.27870309681191 H 0.0 **** 0.06
21200 H 189.35889435369052 129.74952211842998 63.612676784977054 H 0.0 **** 0.06
21201 C 64.36651679370118 168.78101046584294 188.42990951797069 C 0.0 **** -0.24
21202 H 64.70928822425508 169.71784041713138 188.8698005077279 H 0.0 **** 0.06
21203 H 64.88495108337773 168.61209984504845 187.48593135178479 H 0.0 **** 0.06
21204 H 63.292059965187605 168.83708629960972 188.24987410977488 H 0.0 **** 0.06
21205 H 64.57822006569887 167.95958417409196 189.11410484469528 H 0.0 **** 0.06
21206 C 25.898018545086302 143.237646917695 46.48310740917367 C 0.0 **** -0.24
21207 H 26.188656880929813 144.27276307003459 46.65942407861755 H 0.0 **** 0.06
21208 H 24.929910211318216 143.2123760203057 45.98033671267484 H 0.0 **** 0.06
21209 H 25.82627653662921 142.71333644031387 47.43556227464822 H 0.0 **** 0.06
21210 H 26.6454563762598 142.75195674002367 45.8554248208205 H 0.0 **** 0.06
21211 C 62.692177898149225 198.43312976180482 169.91574229734428 C 0.0 **** -0.24
21212 H 62.93930972407057 197.37318881901703 169.84846851511622 H 0.0 **** 0.06
21213 H 62.783547069635574 198.88999591747844 168.9306577025512 H 0.0 **** 0.06
21214 H 63.376855730851275 198.92200305218222 170.60937683451195 H 0.0 **** 0.06
21215 H 61.669523746432986 198.54462910566662 170.27602283196256 H 0.0 **** 0.06
21216 C 71.24294701496507 12.825853117278456 171.785072278865 C 0.0 **** -0.24
21217 H 71.82030041271074 12.721840032387036 172.70361841808287 H 0.0 **** 0.06
21218 H 70.98031979640784 13.87347470159159 171.6373981559302 H 0.0 **** 0.06
21219 H 70.33279691252474 12.229379480520919 171.85962232116816 H 0.0 **** 0.06
21220 H 71.83793407129866 12.476528639775296 170.94165394897877 H 0.0 **** 0.06
21221 C 7.023008331624112 151.87549247207124 49.4826763157389 C 0.0 **** -0.24
21222 H 6.849048088187601 152.91265160020697 49.19779487074385 H 0.0 **** 0.06
21223 H 6.574223902251219 151.21503260820162 48.74018927626511 H 0.0 **** 0.06
21224 H 6.574095077017375 151.6855237077731 50.45685977343936 H 0.0 **** 0.06
21225 H 8.096322118288072 151.68836757806616 49.53441127644737 H 0.0 **** 0.06
21226 C 103.59891911677647 115.60126709748374 69.04983135648274 C 0.0 **** -0.24
21227 H 103.04891259519638 114.9671395688195 68.35481209290367 H 0.0 **** 0.06
21228 H 103.52284350959576 116.64151874859212 68.73060772999003 H 0.0 **** 0.06
21229 H 104.64579046484289 115.3010328876164 69.06461117959293 H 0.0 **** 0.06
21230 H 103.17599046956815 115.49722642844003 70.04935203889124 H 0.0 **** 0.06
21231 C 172.11565579725627 128.0511712394819 45.03838370070997 C 0.0 **** -0.24
21232 H 171.88444134908883 128.67006557227495 44.17207351264145 H 0.0 **** 0.06
21233 H 172.59423148892563 128.66149464609902 45.80427294159591 H 0.0 **** 0.06
21234 H 172.7886737632446 127.24707691367362 44.74160970581582 H 0.0 **** 0.06
21235 H 171.1945573959764 127.62521130542711 45.436463538224075 H 0.0 **** 0.06
21236 C 130.06567508860869 13.360578651945744 44.67482861400447 C 0.0 **** -0.24
21237 H 129.35780734156234 13.792610813172864 45.382547595901315 H 0.0 **** 0.06
21238 H 129.57948349326395 12.558322366726443 44.119151295488166 H 0.0 **** 0.06
21239 H 130.92189470069573 12.958720945481197 45.21675577327477 H 0.0 **** 0.06
21240 H 130.40331770183002 14.130457597307156 43.98118926092158 H 0.0 **** 0.06
21241 C 144.2255110044898 129.72933910251695 163.48773743987016 C 0.0 **** -0.24
21242 H 145.16461729456964 129.20176865151637 163.31867090464903 H 0.0 **** 0.06
21243 H 143.4887571507283 129.40306468277703 162.75330537616156 H 0.0 **** 0.06
21244 H 144.38840179367992 130.80180514257194 163.38824958179248 H 0.0 **** 0.06
21245 H 143.8605936225333 129.50858326191303 164.49130451081902 H 0.0 **** 0.06
21246 C 184.92782368206912 103.37583288643683 168.7810740046916 C 0.0 **** -0.24
21247 H 185.75368612665943 103.98505582113506 169.14957548376603 H 0.0 **** 0.06
21248 H 185.1773625296188 102.31991334594755 168.89287295459732 H 0.0 **** 0.06
21249 H 184.7533621071824 103.59925545698795 167.7287350911063 H 0.0 **** 0.06
21250 H 184.02761373115098 103.59976672151058 169.3541284363964 H 0.0 **** 0.06
21251 C 63.612956832955945 68.36799970208182 118.4537963298068 C 0.0 **** -0.24
21252 H 64.36028898901782 68.93872296886553 119.0061280322362 H 0.0 **** 0.06
21253 H 63.869841017768735 67.30847824481884 118.48490116326977 H 0.0 **** 0.06
21254 H 63.58893745359225 68.70663857386455 117.41822621789791 H 0.0 **** 0.06
21255 H 62.633477062821726 68.51759834448205 118.90820397889163 H 0.0 **** 0.06
21256 C 94.84187946557029 24.746190081749717 44.14530092719781 C 0.0 **** -0.24
21257 H 93.85447283412839 24.8876128768961 44.58452685423481 H 0.0 **** 0.06
21258 H 94.76635705285827 24.79302496375675 43.05871795695134 H 0.0 **** 0.06
21259 H 95.23502625161362 23.77369102515854 44.4414645143645 H 0.0 **** 0.06
21260 H 95.51112533256384 25.530610370278993 44.49813155792765 H 0.0 **** 0.06
21261 C 67.73551036239905 98.2084899116737 87.85159687211365 C 0.0 **** -0.24
21262 H 68.46723600126927 97.45584088104476 87.55520398403368 H 0.0 **** 0.06
21263 H 67.16076544066104 98.51823749322276 86.97811681072187 H 0.0 **** 0.06
21264 H 68.25207259927924 99.07045306670992 88.27219956745077 H 0.0 **** 0.06
21265 H 67.06358684335578 97.78669631178514 88.59788139406973 H 0.0 **** 0.06
21266 C 101.21734319353476 136.71459687657088 78.49654418502155 C 0.0 **** -0.24
21267 H 101.2823826124741 137.21996152842442 77.53183377652522 H 0.0 **** 0.06
21268 H 100.20005359798844 136.35425088178633 78.64882458809313 H 0.0 **** 0.06
21269 H 101.47842195673738 137.41288763763282 79.29089080061942 H 0.0 **** 0.06
21270 H 101.90752943751181 135.87172963865925 78.51118748780459 H 0.0 **** 0.06
21271 C 142.82245800051712 66.50426933565427 38.62647759871774 C 0.0 **** -0.24
21272 H 142.12022030618064 67.3201415800201 38.79720070838607 H 0.0 **** 0.06
21273 H 142.97777135651452 66.37759446554219 37.55491708818471 H 0.0 **** 0.06
21274 H 142.41765981372725 65.58300227208906 39.046550364446915 H 0.0 **** 0.06
21275 H 143.77277389213683 66.73629192170108 39.107380822044206 H 0.0 **** 0.06
21276 C 37.74769851003009 135.91968872520047 94.7654159084293 C 0.0 **** -0.24
21277 H 37.70710580435903 134.86507691365756 94.49343643203693 H 0.0 **** 0.06
21278 H 37.506596547248535 136.52861890142927 93.89270139645379 H 0.0 **** 0.06
21279 H 38.74977083244053 136.16696267442492 95.11447796047452 H 0.0 **** 0.06
21280 H 37.02641472909751 136.1190232312523 95.55753782462418 H 0.0 **** 0.06
21281 C 89.57289519949248 134.65403320364342 150.67558111202501 C 0.0 **** -0.24
21282 H 89.47988463265656 134.53935697454406 149.59620951146871 H 0.0 **** 0.06
21283 H 90.27141124951663 133.9105802867507 151.06024431742924 H 0.0 **** 0.06
21284 H 88.5976145274781 134.51086003574832 151.14093661034383 H 0.0 **** 0.06
21285 H 89.94321931566782 135.65317161811217 150.90480623501293 H 0.0 **** 0.06
21286 C 118.40249570442671 152.35067196819767 94.0506331765398 C 0.0 **** -0.24
21287 H 118.60081420127943 152.4244194718451 92.98206229463813 H 0.0 **** 0.06
21288 H 119.2309136866202 151.8380805417848 94.53982471745871 H 0.0 **** 0.06
21289 H 117.48178988453864 151.78996815117813 94.21152662694124 H 0.0 **** 0.06
21290 H 118.29573176923637 153.35099947233175 94.47048080816495 H 0.0 **** 0.06
21291 C 107.48093237466219 190.72609782238388 79.25426311810969 C 0.0 **** -0.24
21292 H 106.99823604814674 191.4636968693112 78.61325876472893 H 0.0 **** 0.06
21293 H 107.820017298138 191.20783745482694 80.17150683147614 H 0.0 **** 0.06
21294 H 108.33581445269795 190.29568981411214 78.73197270289936 H 0.0 **** 0.06
21295 H 106.7704073961977 189.93674822782086 79.49918790380724 H 0.0 **** 0.06
21296 C 165.80651568206858 183.53768705487533 135.44425920051862 C 0.0 **** -0.24
21297 H 166.69575783210607 184.16315948128397 135.35565128981904 H 0.0 **** 0.06
21298 H 165.68888622273408 183.21945338219413 136.48088321949263 H 0.0 **** 0.06
21299 H 165.91386659258546 182.6621641313684 134.80477968489268 H 0.0 **** 0.06
21300 H 164.9298587182858 184.10826641931934 135.1375697158314 H 0.0 **** 0.06
21301 C 158.69533982751418 22.662278423259494 156.709782757302 C 0.0 **** -0.24
21302 H 158.66547085542248 22.338438105015143 157.75029175873806 H 0.0 **** 0.06
21303 H 159.6720326186092 23.095328444111033 156.49155907666028 H 0.0 **** 0.06
21304 H 157.9201958378975 23.409616204513327 156.53960719163334 H 0.0 **** 0.06
21305 H 158.52365999812747 21.805730939398472 156.0576730021764 H 0.0 **** 0.06
21306 C 100.04464570719364 41.09527906135946 55.00329538849337 C 0.0 **** -0.24
21307 H 100.11798308947812 41.2839503631069 53.932402562963716 H 0.0 **** 0.06
21308 H 100.51125986311101 41.91655910328552 55.54859717337115 H 0.0 **** 0.06
21309 H 100.55521055217699 40.16261586219923 55.243131952414274 H 0.0 **** 0.06
21310 H 98.99525431054954 41.0188798445036 55.28706382831581 H 0.0 **** 0.06
21311 C 37.830779755938224 74.82777925194495 106.23078197559553 C 0.0 **** -0.24
21312 H 37.55381012422177 75.58178291634044 105.4939285428519 H 0.0 **** 0.06
21313 H 37.60180427131159 75.19749203045194 107.23084867137635 H 0.0 **** 0.06
21314 H 38.89810002124949 74.6215442593338 106.15518933931659 H 0.0 **** 0.06
21315 H 37.2685579385263 73.91334454641742 106.04318808938226 H 0.0 **** 0.06
21316 C 158.90837959370538 133.18496175681543 26.57863221511451 C 0.0 **** -0.24
21317 H 158.59031067940776 132.1450445076074 26.657245047719755 H 0.0 **** 0.06
21318 H 158.31138767731937 133.69029360734856 25.81870782437693 H 0.0 **** 0.06
21319 H 159.960537916186 133.2233995041255 26.29887328717348 H 0.0 **** 0.06
21320 H 158.76923264385414 133.68140807948794 27.538859715293995 H 0.0 **** 0.06
21321 C 189.76375617105722 135.66393193503504 175.59813769113353 C 0.0 **** -0.24
21322 H 190.4323413463998 135.55734727828758 176.45238136627339 H 0.0 **** 0.06
21323 H 189.34729112278285 134.68971162954404 175.33991614560185 H 0.0 **** 0.06
21324 H 190.32025002942714 136.0589934984432 174.74896126530126 H 0.0 **** 0.06
21325 H 188.95485277358125 136.34835792598835 175.85397170221336 H 0.0 **** 0.06
21326 C 74.4703987498247 181.0000490224681 32.58968222708614 C 0.0 **** -0.24
21327 H 73.78365892771896 180.28086770586688 32.14278812044583 H 0.0 **** 0.06
21328 H 75.41054007926893 180.50273802251638 32.830835205630535 H 0.0 **** 0.06
21329 H 74.02963453670725 181.4057897682485 33.500425354085024 H 0.0 **** 0.06
21330 H 74.65838088350924 181.810015645802 31.884693946976256 H 0.0 **** 0.06
21331 C 121.9065008318899 167.23286421477155 89.39298770473917 C 0.0 **** -0.24
21332 H 122.1031610348711 166.25061944023952 88.96172017824784 H 0.0 **** 0.06
21333 H 120.83685116354371 167.34207139286303 89.57627735398754 H 0.0 **** 0.06
21334 H 122.23754649438405 168.00606905391703 88.69984866849288 H 0.0 **** 0.06
21335 H 122.44809514703473 167.33086321023916 90.33338680045483 H 0.0 **** 0.06
21336 C 105.27542075395485 112.4627408548227 128.06017288995392 C 0.0 **** -0.24
21337 H 105.67258846750894 113.47480460029473 128.12632746477382 H 0.0 **** 0.06
21338 H 105.95641283462359 111.84304696524137 127.47646580597743 H 0.0 **** 0.06
21339 H 104.29911401303985 112.4859722127517 127.57643212702595 H 0.0 **** 0.06
21340 H 105.17360754197301 112.04589885523185 129.06267402303627 H 0.0 **** 0.06
21341 C 109.50886620538472 162.7369402881601 123.81021147889618 C 0.0 **** -0.24
21342 H 110.25615614539845 162.3088239402382 123.14100160732409 H 0.0 **** 0.06
21343 H 108.86491637174066 163.41323351307813 123.24778568491851 H 0.0 **** 0.06
21344 H 110.0083019220807 163.2877347497872 124.60630511363101 H 0.0 **** 0.06
21345 H 108.90804774120068 161.93739676366403 124.24261636894781 H 0.0 **** 0.06
21346 C 55.099899720037286 143.36662202018474 125.74364849997855 C 0.0 **** -0.24
21347 H 55.168979989703644 142.65289130981824 126.56390519640516 H 0.0 **** 0.06
21348 H 55.26097247558704 142.84949205163704 124.79771042231272 H 0.0 **** 0.06
21349 H 55.85925589204504 144.13855996129547 125.86976236994198 H 0.0 **** 0.06
21350 H 54.11105761497652 143.82535385243943 125.74393612564407 H 0.0 **** 0.06
21351 C 127.3431677798778 51.3962369348348 191.64915252622038 C 0.0 **** -0.24
21352 H 128.00659553797163 50.82967830120819 190.99574177783407 H 0.0 **** 0.06
21353 H 126.47729436369949 51.73763873131958 191.08040762844874 H 0.0 **** 0.06
21354 H 127.87734790950418 52.25751882332236 192.05015723558094 H 0.0 **** 0.06
21355 H 127.01153609623407 50.759683402238466 192.4689596320393 H 0.0 **** 0.06
21356 C 189.52560817991315 152.35052885003682 136.2320394044413 C 0.0 **** -0.24
21357 H 190.52256940289038 151.9745435306741 136.00251154297447 H 0.0 **** 0.06
21358 H 188.77835413652224 151.66889584208687 135.82615948150257 H 0.0 **** 0.06
21359 H 189.39723226817716 153.33747720290881 135.78655396596733 H 0.0 **** 0.06
21360 H 189.40427691206287 152.4211988244775 137.31293262732095 H 0.0 **** 0.06
21361 C 47.75020191189178 198.73072350248705 190.68696650689498 C 0.0 **** -0.24
21362 H 48.20975077119762 198.11716770075782 191.46227407176627 H 0.0 **** 0.06
21363 H 47.22950098658933 198.08731438374696 189.97686583687064 H 0.0 **** 0.06
21364 H 48.52190302979457 199.2967302392088 190.16675462077765 H 0.0 **** 0.06
21365 H 47.03895941164289 199.41926306480963 191.14360538749747 H 0.0 **** 0.06
21366 C 115.86121102890519 94.1472295170006 141.99416644314215 C 0.0 **** -0.24
21367 H 115.92162496241741 93.638884691653 142.9562513501063 H 0.0 **** 0.06
21368 H 115.08421764649668 94.91078863027997 142.0354756917934 H 0.0 **** 0.06
21369 H 115.61795082056213 93.42366008155227 141.21569458148738 H 0.0 **** 0.06
21370 H 116.81944702748626 94.61441808403231 141.76950387085367 H 0.0 **** 0.06
21371 C 138.50077599167892 53.001969232315716 63.21696994377696 C 0.0 **** -0.24
21372 H 138.93050988102982 53.38396901863936 62.29102630240507 H 0.0 **** 0.06
21373 H 139.11870844020103 53.31168072614507 64.05940329307667 H 0.0 **** 0.06
21374 H 138.4598750504802 51.91309563235821 63.17695624199271 H 0.0 **** 0.06
21375 H 137.49261328354817 53.39898992204289 63.340328091777025 H 0.0 **** 0.06
21376 C 65.53907528802722 55.34050016212082 59.978606819778705 C 0.0 **** -0.24
21377 H 65.77990962298139 56.10666587596717 60.71589958075013 H 0.0 **** 0.06
21378 H 65.6670692792382 55.74935462350744 58.9761866203672 H 0.0 **** 0.06
21379 H 64.50638156570955 55.02084009204616 60.112400556714505 H 0.0 **** 0.06
21380 H 66.20400252085847 54.487405097493465 60.11159650703512 H 0.0 **** 0.06
21381 C 89.01923388983491 148.17875480568833 65.97935056422776 C 0.0 **** -0.24
21382 H 88.23837119239238 148.93613039708055 65.9153245551554 H 0.0 **** 0.06
21383 H 89.66515016493761 148.24909154226106 65.10347122453646 H 0.0 **** 0.06
21384 H 88.56460820944204 147.1898610168911 66.01762853973369 H 0.0 **** 0.06
21385 H 89.61065944651253 148.34316418058984 66.88135948940987 H 0.0 **** 0.06
21386 C 157.18621399065964 5.523410029053473 82.48070065472965 C 0.0 **** -0.24
21387 H 156.69205113813683 4.9062056486823735 83.23007671527498 H 0.0 **** 0.06
21388 H 156.90053968914657 6.565862972154271 82.62237896445131 H 0.0 **** 0.06
21389 H 156.8845118485447 5.1963644229659565 81.48551339730722 H 0.0 **** 0.06
21390 H 158.2668722842815 5.424710526136273 82.58384494713798 H 0.0 **** 0.06
21391 C 41.67971166272645 191.33932080851557 180.58657816847517 C 0.0 **** -0.24
21392 H 41.88176154385394 190.30285035406575 180.31632916196983 H 0.0 **** 0.06
21393 H 42.21297568079467 191.58539033059373 181.50480796482486 H 0.0 **** 0.06
21394 H 40.60832818362812 191.4710683593205 180.74190599215112 H 0.0 **** 0.06
21395 H 42.01461460575413 191.99540368145983 179.78428525095913 H 0.0 **** 0.06
21396 C 4.0057291253122855 30.354834295988212 62.844894072999296 C 0.0 **** -0.24
21397 H 3.5483355641263756 31.20090859880912 63.35790098261839 H 0.0 **** 0.06
21398 H 5.013207435533076 30.62487397133225 62.527098968642576 H 0.0 **** 0.06
21399 H 3.407450253859281 30.090241603856327 61.97345861053191 H 0.0 **** 0.06
21400 H 4.054923210661599 29.502306211648772 63.52356448402111 H 0.0 **** 0.06
21401 C 86.05118228518992 52.78430830483447 134.06833579173892 C 0.0 **** -0.24
21402 H 86.33704482120496 53.800493797101666 133.79746251889804 H 0.0 **** 0.06
21403 H 84.96369956881344 52.71218311242984 134.11103255812105 H 0.0 **** 0.06
21404 H 86.4711661130207 52.53570611568284 135.04220548837395 H 0.0 **** 0.06
21405 H 86.43225925842 52.0896715237875 133.31999445403733 H 0.0 **** 0.06
21406 C 195.3236909411692 2.5235117441237094 116.98432456127199 C 0.0 **** -0.24
21407 H 195.4404771103591 1.556000362886408 116.49549594868353 H 0.0 **** 0.06
21408 H 196.29053212624052 2.8595270965059854 117.35894368323005 H 0.0 **** 0.06
21409 H 194.62453586019905 2.428565752988561 117.81556527779335 H 0.0 **** 0.06
21410 H 194.9392113620847 3.2477776932217353 116.26677877714195 H 0.0 **** 0.06
21411 C 59.626747056461 143.4744221430774 82.28395487159776 C 0.0 **** -0.24
21412 H 60.290889092389534 142.68685470030596 81.9283574096703 H 0.0 **** 0.06
21413 H 59.239111125343015 143.20553055243516 83.26727598375146 H 0.0 **** 0.06
21414 H 58.796782562903104 143.59191225286588 81.58561989199313 H 0.0 **** 0.06
21415 H 60.17843562159999 144.41157639120456 82.35331127063296 H 0.0 **** 0.06
21416 C 173.79121121874428 130.37266551157683 97.34112327459417 C 0.0 **** -0.24
21417 H 173.4589357167295 131.12566582910935 96.62650225976444 H 0.0 **** 0.06
21418 H 172.93446026708284 129.78863822496265 97.67764314493013 H 0.0 **** 0.06
21419 H 174.2548268169558 130.86381690936713 98.19708272441241 H 0.0 **** 0.06
21420 H 174.51545612767922 129.71328832592366 96.86297819455055 H 0.0 **** 0.06
21421 C 143.5761557871955 74.71719893356584 76.02380706424985 C 0.0 **** -0.24
21422 H 144.43710248013517 74.12352656582618 76.33140355013501 H 0.0 **** 0.06
21423 H 142.66096517005477 74.23058016871403 76.36098801488565 H 0.0 **** 0.06
21424 H 143.56376075095284 74.8020913505805 74.93748192456111 H 0.0 **** 0.06
21425 H 143.64377081892272 75.71165911268537 76.4657627838408 H 0.0 **** 0.06
21426 C 7.919956308303853 56.58813151142918 24.326001317399346 C 0.0 **** -0.24
21427 H 7.574991523886752 55.89189664835409 25.089971853474594 H 0.0 **** 0.06
21428 H 7.400083845575864 57.540071378766115 24.441391221181618 H 0.0 **** 0.06
21429 H 7.710396829470426 56.17684708432165 23.338282916643266 H 0.0 **** 0.06
21430 H 8.993052457322506 56.74407842167858 24.434775806583673 H 0.0 **** 0.06
21431 C 125.83178087649364 43.51212225286858 42.468043759590586 C 0.0 **** -0.24
21432 H 125.30794480609748 43.79159383696006 41.55282950537875 H 0.0 **** 0.06
21433 H 125.47373807804462 42.540378051357976 42.80784111128264 H 0.0 **** 0.06
21434 H 125.64031051911232 44.259771464745995 43.237848568311264 H 0.0 **** 0.06
21435 H 126.90197430454978 43.457580824273464 42.27182726417287 H 0.0 **** 0.06
21436 C 48.54871574886715 168.76052230846852 36.312723773214884 C 0.0 **** -0.24
21437 H 47.93492744587272 168.61256899618024 37.20135498070226 H 0.0 **** 0.06
21438 H 49.58919837517675 168.5330873020688 36.547595939868614 H 0.0 **** 0.06
21439 H 48.467447368151454 169.79567466719865 35.983321746098284 H 0.0 **** 0.06
21440 H 48.203008436460465 168.0979958567976 35.51916102247523 H 0.0 **** 0.06
21441 C 142.09226157646611 173.38041607794432 144.0345335513859 C 0.0 **** -0.24
21442 H 141.83497700567932 174.13296898126427 143.28902938364692 H 0.0 **** 0.06
21443 H 142.80633614569342 173.80010004182157 144.74361152882273 H 0.0 **** 0.06
21444 H 142.53692354718544 172.51663558763534 143.53996941411032 H 0.0 **** 0.06
21445 H 141.19191969439044 173.0708803889951 144.5642578305417 H 0.0 **** 0.06
21446 C 146.36404129147343 139.2840254626227 149.46554208428708 C 0.0 **** -0.24
21447 H 146.6324259655447 138.23666980914277 149.60886170936115 H 0.0 **** 0.06
21448 H 147.13096792992545 139.77559933474421 148.86663445312314 H 0.0 **** 0.06
21449 H 146.28876081231226 139.77569521953723 150.43542784124452 H 0.0 **** 0.06
21450 H 145.40571318074274 139.34566749330034 148.95125214274324 H 0.0 **** 0.06
21451 C 21.547236075301157 171.80230584534644 17.634336287786923 C 0.0 **** -0.24
21452 H 21.469167282690137 171.14803560031507 16.766566518392835 H 0.0 **** 0.06
21453 H 22.411736142299034 171.51132120299607 18.232003652613457 H 0.0 **** 0.06
21454 H 20.643563623124294 171.71433691709095 18.23700720775048 H 0.0 **** 0.06
21455 H 21.664523728511526 172.83350715592854 17.3027203590909 H 0.0 **** 0.06
21456 C 191.37684495449452 176.3999842828515 130.63039580549022 C 0.0 **** -0.24
21457 H 191.67360958581656 175.8024594337616 129.76875349087234 H 0.0 **** 0.06
21458 H 192.18649012701422 177.07949899544076 130.89693874167773 H 0.0 **** 0.06
21459 H 191.16253272544827 175.74059638937683 131.47166007088074 H 0.0 **** 0.06
21460 H 190.48531533639004 176.9745560858102 130.38340021966775 H 0.0 **** 0.06
21461 C 176.11378214836074 46.55103579748226 2.76771454796301 C 0.0 **** -0.24
21462 H 175.97702512669596 47.3199139487445 2.0075806263824347 H 0.0 **** 0.06
21463 H 176.88480422799597 46.86795456551366 3.4703233578046024 H 0.0 **** 0.06
21464 H 176.41747274806926 45.618474657347576 2.291495654552193 H 0.0 **** 0.06
21465 H 175.17582649068166 46.39780001832338 3.301458553112809 H 0.0 **** 0.06
21466 C 145.47166612065726 21.819127679109783 186.3212942702836 C 0.0 **** -0.24
21467 H 144.76400915116085 22.403008425261987 186.9092309626136 H 0.0 **** 0.06
21468 H 145.18847682036684 21.858698303771405 185.2688068840239 H 0.0 **** 0.06
21469 H 145.45844317929848 20.783294254384828 186.6627602092174 H 0.0 **** 0.06
21470 H 146.47358035784822 22.229454543521626 186.44401505010467 H 0.0 **** 0.06
21471 C 153.0597976667321 37.73859665028789 176.42122079274736 C 0.0 **** -0.24
21472 H 153.53961577844694 38.69159000327272 176.64291860442745 H 0.0 **** 0.06
21473 H 153.1728402455576 37.51306923159464 175.36066318088734 H 0.0 **** 0.06
21474 H 151.9999140739083 37.798728260605344 176.66937729806767 H 0.0 **** 0.06
21475 H 153.52735208607214 36.95021645001492 177.0122480649934 H 0.0 **** 0.06
21476 C 26.448253861672868 140.47521672258688 98.16695734173919 C 0.0 **** -0.24
21477 H 26.979143091008496 141.2709490033448 98.68930056316793 H 0.0 **** 0.06
21478 H 25.98961566085569 140.87726553225667 97.26369744961312 H 0.0 **** 0.06
21479 H 25.673566237526472 140.0680974173842 98.81785646610552 H 0.0 **** 0.06
21480 H 27.14975103949601 139.6846935317506 97.89899933709813 H 0.0 **** 0.06
21481 C 158.5563743772807 57.14026499088118 139.53415885970057 C 0.0 **** -0.24
21482 H 158.65722745214507 56.117102856126564 139.17091293116547 H 0.0 **** 0.06
21483 H 158.17098245540348 57.12713143441988 140.55327378998314 H 0.0 **** 0.06
21484 H 157.86777179021817 57.68758575927029 138.89085634575636 H 0.0 **** 0.06
21485 H 159.53184203616553 57.62740621508863 139.52048492272175 H 0.0 **** 0.06
21486 C 121.65852179853437 86.35284626849352 102.72250658599626 C 0.0 **** -0.24
21487 H 121.14618257134052 86.25286000200794 101.76543712504122 H 0.0 **** 0.06
21488 H 122.70297379542441 86.06526009646961 102.60753322325661 H 0.0 **** 0.06
21489 H 121.18168091175076 85.70389883030259 103.45877673177517 H 0.0 **** 0.06
21490 H 121.60022481676509 87.38750161785276 103.05945085143958 H 0.0 **** 0.06
21491 C 78.71738648508634 169.27887841471124 179.51366525164926 C 0.0 **** -0.24
21492 H 78.21658469967622 169.98196727035827 180.17967901147898 H 0.0 **** 0.06
21493 H 78.14612017993427 169.18352822279564 178.58949651024798 H 0.0 **** 0.06
21494 H 78.7877553377975 168.30617057535346 179.99860166672931 H 0.0 **** 0.06
21495 H 79.71878014940518 169.64491360719967 179.2860061643935 H 0.0 **** 0.06
21496 C 82.75389847838207 14.658830790294843 168.49205125820208 C 0.0 **** -0.24
21497 H 82.22313337753673 14.64519960377396 167.53991403668132 H 0.0 **** 0.06
21498 H 83.69635018360665 15.195272890082393 168.3736604634187 H 0.0 **** 0.06
21499 H 82.95533546656682 13.635825423591477 168.8103873218845 H 0.0 **** 0.06
21500 H 82.14188989109823 15.160423255657975 169.2412762957121 H 0.0 **** 0.06
21501 C 144.46437329220012 71.77867653808619 183.4000748819264 C 0.0 **** -0.24
21502 H 145.31896009739864 71.78669096688927 182.72503429088124 H 0.0 **** 0.06
21503 H 143.55072589744506 71.95462226104337 182.83264628384714 H 0.0 **** 0.06
21504 H 144.58381531098863 72.56382407496189 184.14749755959244 H 0.0 **** 0.06
21505 H 144.40331159614865 70.81082602623077 183.8968409432331 H 0.0 **** 0.06
21506 C 18.23686215803616 26.285174077001926 133.78435822068218 C 0.0 **** -0.24
21507 H 17.72015225725562 26.478130050753208 132.8437256821201 H 0.0 **** 0.06
21508 H 19.308718583946074 26.421571122754756 133.64473979036237 H 0.0 **** 0.06
21509 H 18.03826252985857 25.26181870344334 134.10341097160568 H 0.0 **** 0.06
21510 H 17.87736432027026 26.979144092568987 134.54501690450414 H 0.0 **** 0.06
21511 C 63.08349596554865 119.96398380644135 109.42571824152347 C 0.0 **** -0.24
21512 H 64.09447671231968 119.60712455655388 109.23273882075736 H 0.0 **** 0.06
21513 H 63.032894728878546 120.38392906713153 110.43098248777312 H 0.0 **** 0.06
21514 H 62.383394056607784 119.13312214228077 109.34360931815735 H 0.0 **** 0.06
21515 H 62.82404538806071 120.73226442469866 108.6975575690158 H 0.0 **** 0.06
21516 C 190.577952603037 117.4261402833639 168.73292223910215 C 0.0 **** -0.24
21517 H 190.9807863664818 116.63254091602414 169.3631822739066 H 0.0 **** 0.06
21518 H 189.9527769010401 116.98811962076547 167.95403010875367 H 0.0 **** 0.06
21519 H 191.39834681384522 117.97748031159301 168.27414976679532 H 0.0 **** 0.06
21520 H 189.97984836689594 118.10446325699888 169.34179904014525 H 0.0 **** 0.06
21521 C 177.10323083142868 122.72120120061186 0.7154900139316993 C 0.0 **** -0.24
21522 H 177.45763450459728 121.70980361138123 0.5144859016228409 H 0.0 **** 0.06
21523 H 176.18104268378175 122.89893424348546 0.1618740125596645 H 0.0 **** 0.06
21524 H 177.86026767229347 123.43975872713835 0.40139610345059396 H 0.0 **** 0.06
21525 H 176.91460484226226 122.83470544420203 1.7827761487474874 H 0.0 **** 0.06
21526 C 44.318614073823824 152.28145307017166 86.95199242588336 C 0.0 **** -0.24
21527 H 44.91161597342017 151.51724596636888 87.45401625303992 H 0.0 **** 0.06
21528 H 44.73922282751437 152.47717096700003 85.96528959392654 H 0.0 **** 0.06
21529 H 44.333869472986294 153.19779891747265 87.54159587857808 H 0.0 **** 0.06
21530 H 43.290641274960336 151.93315567359917 86.84715659841513 H 0.0 **** 0.06
21531 C 30.137782653636975 64.79614100339171 149.75578068464392 C 0.0 **** -0.24
21532 H 31.016077566847798 64.48318396872077 149.1910200039486 H 0.0 **** 0.06
21533 H 29.708670015445705 65.68680093431425 149.2962777756971 H 0.0 **** 0.06
21534 H 30.428957402524702 65.01990034276804 150.78238855550947 H 0.0 **** 0.06
21535 H 29.401278262703272 63.99351665640785 149.75433478187747 H 0.0 **** 0.06
21536 C 89.42603025317175 178.81000540621193 95.19088113460606 C 0.0 **** -0.24
21537 H 89.04811115537905 178.84687247074007 94.169134268491 H 0.0 **** 0.06
21538 H 90.35730171929106 179.37335032014883 95.25351224729195 H 0.0 **** 0.06
21539 H 89.60705439026015 177.77364601608585 95.47400855147919 H 0.0 **** 0.06
21540 H 88.68967687127702 179.24777628716834 95.86566262412771 H 0.0 **** 0.06
21541 C 26.17090863796983 12.014549000613613 14.589811608160034 C 0.0 **** -0.24
21542 H 25.542389574358566 11.141713887979535 14.765678969477605 H 0.0 **** 0.06
21543 H 27.072460570710575 11.941828940535117 15.199767862015449 H 0.0 **** 0.06
21544 H 25.622324575011916 12.917693671622175 14.858521352943825 H 0.0 **** 0.06
21545 H 26.446770578901507 12.056842151011068 13.536221480160485 H 0.0 **** 0.06
21546 C 19.16564560036005 15.560282057613335 161.6237043292475 C 0.0 **** -0.24
21547 H 18.31770529768528 15.723451575251943 162.28924444379737 H 0.0 **** 0.06
21548 H 19.553614396496357 16.522598500941854 161.28705911930203 H 0.0 **** 0.06
21549 H 18.842954519137606 14.976867754829755 160.76135526957103 H 0.0 **** 0.06
21550 H 19.947446700316988 15.019293489291158 162.15744968588095 H 0.0 **** 0.06
21551 C 51.354802843513255 122.67113653384706 42.185250298015475 C 0.0 **** -0.24
21552 H 50.48149763054613 123.14991409131508 42.62847117165465 H 0.0 **** 0.06
21553 H 52.23756855495043 122.90263678525119 42.78208866462886 H 0.0 **** 0.06
21554 H 51.495556961791806 123.0410208003521 41.16979149382533 H 0.0 **** 0.06
21555 H 51.205268203990215 121.59157265873375 42.161736062049954 H 0.0 **** 0.06
21556 C 132.9676359487979 65.69351444574883 103.55277545526118 C 0.0 **** -0.24
21557 H 132.06992763226492 66.13037523767377 103.99134144814181 H 0.0 **** 0.06
21558 H 132.7894975358199 64.63910620646205 103.3367275482124 H 0.0 **** 0.06
21559 H 133.796143719212 65.78589897875271 104.25392780799177 H 0.0 **** 0.06
21560 H 133.21190146555048 66.2180507553898 102.62870310271154 H 0.0 **** 0.06
21561 C 123.44757008429147 109.32921021150116 43.68963695585978 C 0.0 **** -0.24
21562 H 123.75471846400043 110.0858834875736 42.96719725330027 H 0.0 **** 0.06
21563 H 123.17496137244842 109.81219881899494 44.62771913059572 H 0.0 **** 0.06
21564 H 124.27219218969176 108.63802288870573 43.86272116000748 H 0.0 **** 0.06
21565 H 122.58977144290336 108.78230138556648 43.29874451397683 H 0.0 **** 0.06
21566 C 117.28596919611411 6.205942716345767 2.9994811868673494 C 0.0 **** -0.24
21567 H 117.98703865459132 5.76154493085793 2.2934933045750796 H 0.0 **** 0.06
21568 H 117.81488074436271 6.483796112331142 3.911148201992674 H 0.0 **** 0.06
21569 H 116.50473391026205 5.484504552052293 3.237871781068698 H 0.0 **** 0.06
21570 H 116.83588199079594 7.093990996045463 2.5549685796861397 H 0.0 **** 0.06
21571 C 36.08268814431722 50.876442417002096 173.1524662452808 C 0.0 **** -0.24
21572 H 35.278895095730945 51.534534695296074 172.82285592331178 H 0.0 **** 0.06
21573 H 37.04103703096081 51.28156754560389 172.82697011208955 H 0.0 **** 0.06
21574 H 35.94141697274807 49.88574126351139 172.7190895177626 H 0.0 **** 0.06
21575 H 36.06996550432271 50.80199928127483 174.23954536940005 H 0.0 **** 0.06
21576 C 120.91150539737222 64.0207215870885 23.80254463061513 C 0.0 **** -0.24
21577 H 121.1921246180789 63.26568885422947 24.537307939790267 H 0.0 **** 0.06
21578 H 121.72051589839404 64.74323045069616 23.6984599663554 H 0.0 **** 0.06
21579 H 120.00795542448904 64.53127404321013 24.135723738289357 H 0.0 **** 0.06
21580 H 120.72463318825311 63.54108455665555 22.841970963690372 H 0.0 **** 0.06
21581 C 174.77951126979104 198.82611025374962 173.60243301403835 C 0.0 **** -0.24
21582 H 174.70817356941973 197.84275011425257 174.06675019193523 H 0.0 **** 0.06
21583 H 174.65854542834228 199.5968285717609 174.36514807939437 H 0.0 **** 0.06
21584 H 173.99604538187876 198.9308751143501 172.85191238925688 H 0.0 **** 0.06
21585 H 175.75463033931499 198.93405433063145 173.12781153141077 H 0.0 **** 0.06
21586 C 168.99927792956422 180.60409795591497 168.17390737183132 C 0.0 **** -0.24
21587 H 169.71360928588365 181.41402527062422 168.02759902964988 H 0.0 **** 0.06
21588 H 168.21488285851234 180.67196484706517 167.41918479374135 H 0.0 **** 0.06
21589 H 168.5563415155578 180.68604163982369 169.16653431615725 H 0.0 **** 0.06
21590 H 169.51212338011132 179.64680340696316 168.0822320381787 H 0.0 **** 0.06
21591 C 81.87557362578141 57.99509495643434 94.98637419808415 C 0.0 **** -0.24
21592 H 81.74260885404016 58.70644889718545 94.1708917420805 H 0.0 **** 0.06
21593 H 81.02024869947536 58.05167180521158 95.66037496487351 H 0.0 **** 0.06
21594 H 82.78643762115519 58.23793218725069 95.53390643529306 H 0.0 **** 0.06
21595 H 81.95352768815332 56.98668851080953 94.57994426826036 H 0.0 **** 0.06
21596 C 108.71040046948804 57.963941673796725 128.34849973862126 C 0.0 **** -0.24
21597 H 109.7035553867903 57.96387115376997 128.79713653763378 H 0.0 **** 0.06
21598 H 107.95915253554915 58.09513033896732 129.1280930846573 H 0.0 **** 0.06
21599 H 108.54224824828827 57.01553354388413 127.83845412538898 H 0.0 **** 0.06
21600 H 108.63623108753137 58.78044636364679 127.62985539821992 H 0.0 **** 0.06
21601 C 50.73796541941766 5.059652735994121 19.27260271126289 C 0.0 **** -0.24
21602 H 50.97296842888892 5.761906404318438 20.072540869628 H 0.0 **** 0.06
21603 H 49.956794865513785 5.479418019603088 18.639093952517257 H 0.0 **** 0.06
21604 H 50.39194116916667 4.1208139473112055 19.703840010361063 H 0.0 **** 0.06
21605 H 51.631666017548724 4.87769044257891 18.675426310095958 H 0.0 **** 0.06
21606 C 56.94705322615255 41.44862000385547 35.385133341883574 C 0.0 **** -0.24
21607 H 57.242768271760895 40.57130756133364 35.961432046574316 H 0.0 **** 0.06
21608 H 56.61349520067215 41.13784484728035 34.39588186094289 H 0.0 **** 0.06
21609 H 57.799898007547256 42.12102759176224 35.287329879694994 H 0.0 **** 0.06
21610 H 56.135330233032875 41.96309857320696 35.89808191251595 H 0.0 **** 0.06
21611 C 94.94475459494709 163.6652688377103 172.66108778295924 C 0.0 **** -0.24
21612 H 95.91900794280173 163.5044389830687 172.1983244764994 H 0.0 **** 0.06
21613 H 95.05929161591013 164.30441052041644 173.53642420788844 H 0.0 **** 0.06
21614 H 94.52445226690952 162.7060662163653 172.96345836296862 H 0.0 **** 0.06
21615 H 94.27724021945653 164.14457527894666 171.94490234675132 H 0.0 **** 0.06
21616 C 104.83036796209399 181.5516114744171 147.15447087695887 C 0.0 **** -0.24
21617 H 104.6436103047229 182.07097053217086 146.2152795235022 H 0.0 **** 0.06
21618 H 104.03182362256888 181.7798214479812 147.86150118851296 H 0.0 **** 0.06
21619 H 105.78567341860807 181.87981422858599 147.56673191856106 H 0.0 **** 0.06
21620 H 104.86189649606996 180.4765508630295 146.97583625608814 H 0.0 **** 0.06
21621 C 117.75823021068697 124.38806595779451 60.276601964397585 C 0.0 **** -0.24
21622 H 116.77193651218676 124.66138411759545 59.90442249072926 H 0.0 **** 0.06
21623 H 118.42121174672482 124.18592380106827 59.435131393421045 H 0.0 **** 0.06
21624 H 117.67775814214548 123.49580065045367 60.898101414545124 H 0.0 **** 0.06
21625 H 118.16253394059285 125.20805721017726 60.86947674546373 H 0.0 **** 0.06
21626 C 127.15366248909768 79.70610517648089 155.91446791236686 C 0.0 **** -0.24
21627 H 127.78159430455707 79.57046707317403 156.79481307977815 H 0.0 **** 0.06
21628 H 126.83317343923864 78.73301633530576 155.54300654485957 H 0.0 **** 0.06
21629 H 127.72240317873121 80.22185221332106 155.1401955295493 H 0.0 **** 0.06
21630 H 126.28019993343213 80.30097890998854 156.1797546772452 H 0.0 **** 0.06
21631 C 8.486927099178104 93.14377572292386 179.16563558815795 C 0.0 **** -0.24
21632 H 7.437048647063818 93.4268756521981 179.24139407784367 H 0.0 **** 0.06
21633 H 8.892437189789149 92.98389165452446 180.16529821119067 H 0.0 **** 0.06
21634 H 9.042262419085034 93.93972634248533 178.67043668309142 H 0.0 **** 0.06
21635 H 8.574095761173908 92.22499010165754 178.58695583462136 H 0.0 **** 0.06
21636 C 72.63682480645878 77.86521109996266 129.81559670033187 C 0.0 **** -0.24
21637 H 73.41484817383275 78.61422919229537 129.9628591125535 H 0.0 **** 0.06
21638 H 72.92073076007921 76.94234394041015 130.32178273973125 H 0.0 **** 0.06
21639 H 72.51676724742947 77.67235185927171 128.74874000205628 H 0.0 **** 0.06
21640 H 71.69700981634992 78.2317818426526 130.22660682657485 H 0.0 **** 0.06
21641 C 165.1999783021471 195.6615039523671 101.1201707841694 C 0.0 **** -0.24
21642 H 165.81200119921414 196.50701483762793 100.8051723535433 H 0.0 **** 0.06
21643 H 164.48870002917107 195.9914347515644 101.87799371158505 H 0.0 **** 0.06
21644 H 165.8412491147866 194.88435575403716 101.53678465711195 H 0.0 **** 0.06
21645 H 164.65866585381085 195.26480261346603 100.26171778796615 H 0.0 **** 0.06
21646 C 66.33362849463049 44.277328900991876 167.2843112685368 C 0.0 **** -0.24
21647 H 65.80855389183458 43.98344160776429 166.3754721178414 H 0.0 **** 0.06
21648 H 67.1931683930543 43.62516895578284 167.4350700962773 H 0.0 **** 0.06
21649 H 65.65839622120589 44.19179872850873 168.13660739230355 H 0.0 **** 0.06
21650 H 66.67150436391309 45.30962674763629 167.19044569404605 H 0.0 **** 0.06
21651 C 50.795462252780624 99.3788920853151 172.26460316802303 C 0.0 **** -0.24
21652 H 50.73608552299095 99.9815707927524 171.35797619112265 H 0.0 **** 0.06
21653 H 51.43731766614752 98.51649630410128 172.08603436846647 H 0.0 **** 0.06
21654 H 49.797071706276796 99.03760299557484 172.53884168488892 H 0.0 **** 0.06
21655 H 51.20874609288515 99.97947908565914 173.07417551143163 H 0.0 **** 0.06
21656 C 96.9690752531755 84.29959984745446 31.53460191136645 C 0.0 **** -0.24
21657 H 98.05636624243618 84.3516148254514 31.592803571413157 H 0.0 **** 0.06
21658 H 96.54841720331285 85.29132064966663 31.70378630533193 H 0.0 **** 0.06
21659 H 96.5972572288236 83.61161406651661 32.29396849390369 H 0.0 **** 0.06
21660 H 96.67501848387292 83.94324822089791 30.546818109032586 H 0.0 **** 0.06
21661 C 128.55688396510408 18.29414897008982 154.34874337989126 C 0.0 **** -0.24
21662 H 128.78655466393923 18.422013941924277 155.40660896825315 H 0.0 **** 0.06
21663 H 128.27971115699313 17.256190338112873 154.16080502462998 H 0.0 **** 0.06
21664 H 129.43384027609613 18.550015972143143 153.75355231586266 H 0.0 **** 0.06
21665 H 127.72887604229697 18.946754587676395 154.0751388621374 H 0.0 **** 0.06
21666 C 4.32895951944667 158.53607160873747 48.63803129282013 C 0.0 **** -0.24
21667 H 4.7245835046092 159.31215957288407 49.2919156707615 H 0.0 **** 0.06
21668 H 5.088855165963054 158.2538269477646 47.908295537322516 H 0.0 **** 0.06
21669 H 3.447654363091999 158.91218019058766 48.11896942066625 H 0.0 **** 0.06
21670 H 4.056115945148207 157.66441712542922 49.23247348251 H 0.0 **** 0.06
21671 C 161.0126881060486 18.072155817864626 74.8111807522265 C 0.0 **** -0.24
21672 H 160.76978853176638 17.822060756581436 75.84328583945171 H 0.0 **** 0.06
21673 H 162.06557258665353 17.859242266793146 74.62438196339048 H 0.0 **** 0.06
21674 H 160.8189847006501 19.130261949934834 74.63827886495392 H 0.0 **** 0.06
21675 H 160.3960491290413 17.475697444636793 74.13863375148424 H 0.0 **** 0.06
21676 C 40.19319908658713 18.92649796713461 192.95854752824792 C 0.0 **** -0.24
21677 H 39.95961594793454 19.986576647795502 193.06250815935496 H 0.0 **** 0.06
21678 H 39.493229084873974 18.3403633358475 193.55327339263442 H 0.0 **** 0.06
21679 H 41.20935490063641 18.743384204482098 193.307615416461 H 0.0 **** 0.06
21680 H 40.11196907201821 18.6374328712038 191.9107972078826 H 0.0 **** 0.06
21681 C 51.3964675484106 26.133382574982647 79.13438132236016 C 0.0 **** -0.24
21682 H 52.31924780302984 26.71183978769085 79.10181573452715 H 0.0 **** 0.06
21683 H 50.61142195404288 26.671880236485947 78.602864266707 H 0.0 **** 0.06
21684 H 51.0976525238606 25.98356168260389 80.17148784865358 H 0.0 **** 0.06
21685 H 51.557486622090195 25.16475724235653 78.65969243974664 H 0.0 **** 0.06
21686 C 178.30510686668472 119.6670420449401 176.710019808254 C 0.0 **** -0.24
21687 H 179.2090730171077 120.11353017668421 176.29497975746813 H 0.0 **** 0.06
21688 H 177.4316715739442 120.08183946608597 176.2066605173129 H 0.0 **** 0.06
21689 H 178.2488338432405 119.88777356790843 177.77615940204868 H 0.0 **** 0.06
21690 H 178.33265039201905 118.58827408148784 176.56272528581357 H 0.0 **** 0.06
21691 C 194.43584744706433 47.857927411781645 129.7082225367854 C 0.0 **** -0.24
21692 H 194.91060874015955 48.837936489936425 129.65886053823962 H 0.0 **** 0.06
21693 H 195.06749722309758 47.12310000173744 129.20947619690892 H 0.0 **** 0.06
21694 H 193.46522358514656 47.89878330605427 129.21458523776786 H 0.0 **** 0.06
21695 H 194.30059181231212 47.573744990740465 130.75226514524633 H 0.0 **** 0.06
21696 C 1.1167212797143904 189.77709283586003 110.93408305379097 C 0.0 **** -0.24
21697 H 0.41426364627227485 189.16800447308373 111.50176632073268 H 0.0 **** 0.06
21698 H 0.6900953948495996 190.7668262373432 110.77091800575238 H 0.0 **** 0.06
21699 H 1.3144136069963182 189.30259909632744 109.97260027723738 H 0.0 **** 0.06
21700 H 2.0486445237647146 189.87066741146793 111.49184873350436 H 0.0 **** 0.06
21701 C 23.500859860564162 177.14408652165739 82.16645458569621 C 0.0 **** -0.24
21702 H 22.97924914015637 176.43831477471622 82.8118809184715 H 0.0 **** 0.06
21703 H 23.16027288070275 177.015931841402 81.13882791384168 H 0.0 **** 0.06
21704 H 24.573431781809504 176.96104545396824 82.21884821552743 H 0.0 **** 0.06
21705 H 23.289161095103637 178.1617377207778 82.49537914117172 H 0.0 **** 0.06
21706 C 77.97562883073435 134.33427029854195 1.833766255299416 C 0.0 **** -0.24
21707 H 78.39386755847033 133.3727131257772 2.132227078702826 H 0.0 **** 0.06
21708 H 76.92227576701374 134.2091741978288 1.5799454444399146 H 0.0 **** 0.06
21709 H 78.51623572560067 134.71277349930762 0.9658404462636483 H 0.0 **** 0.06
21710 H 78.06930161241581 135.04201810658188 2.6574282809435203 H 0.0 **** 0.06
21711 C 184.3404827470788 11.466881620014064 116.32445291212338 C 0.0 **** -0.24
21712 H 184.0290683536879 11.733826407528426 117.33403957279398 H 0.0 **** 0.06
21713 H 185.38431596332111 11.151726073215166 116.3376021152057 H 0.0 **** 0.06
21714 H 184.2299409404024 12.331437253485397 115.67058386645124 H 0.0 **** 0.06
21715 H 183.71886624558488 10.651114563483134 115.95635957996615 H 0.0 **** 0.06
21716 C 141.83191974140405 96.9293993108887 67.15374290953058 C 0.0 **** -0.24
21717 H 142.37026610927026 97.76322686887099 67.60587287364369 H 0.0 **** 0.06
21718 H 141.13473324653086 97.31037836458427 66.40640786458971 H 0.0 **** 0.06
21719 H 141.28103677943315 96.39239437068349 67.9261730663884 H 0.0 **** 0.06
21720 H 142.54300787702232 96.25403276142094 66.67761647950441 H 0.0 **** 0.06
21721 C 32.69472256821608 35.05658652573271 158.5965224923334 C 0.0 **** -0.24
21722 H 32.7153030294899 35.08416783818325 159.68646993199604 H 0.0 **** 0.06
21723 H 33.180488042373256 35.9490561045169 158.20119395617542 H 0.0 **** 0.06
21724 H 31.660590836312238 35.02257505174285 158.25399445129014 H 0.0 **** 0.06
21725 H 33.22257784927105 34.16897359168394 158.24601886799005 H 0.0 **** 0.06
21726 C 142.69911654517588 50.36377066745925 130.97059413275522 C 0.0 **** -0.24
21727 H 143.26193553673633 51.233932708015146 131.30918606832074 H 0.0 **** 0.06
21728 H 143.30682973355087 49.46715677685826 131.095205161174 H 0.0 **** 0.06
21729 H 142.44160025514148 50.485407933279305 129.9189547479645 H 0.0 **** 0.06
21730 H 141.78718454289444 50.27063688864256 131.55981547592728 H 0.0 **** 0.06
21731 C 63.550652785901335 155.45251468143857 1.4169378752965827 C 0.0 **** -0.24
21732 H 64.10169738270508 154.58427526620648 1.7770876121462535 H 0.0 **** 0.06
21733 H 63.735586767768226 156.29974326207378 2.0766907221005084 H 0.0 **** 0.06
21734 H 62.484018946025884 155.22606566172678 1.4051991555395418 H 0.0 **** 0.06
21735 H 63.88009014006148 155.69868510902242 0.40741232522666593 H 0.0 **** 0.06
21736 C 111.34692230336432 104.79171487723801 103.17836475965976 C 0.0 **** -0.24
21737 H 111.08359310269549 105.34495782421106 104.08012341171167 H 0.0 **** 0.06
21738 H 111.68701837084879 105.48812704958004 102.41138076302025 H 0.0 **** 0.06
21739 H 110.47257728633426 104.25066647319824 102.81691338980102 H 0.0 **** 0.06
21740 H 112.14362372057167 104.08417082061436 103.40680278154912 H 0.0 **** 0.06
21741 C 167.99516253356637 153.7871995436028 122.58001860715478 C 0.0 **** -0.24
21742 H 167.59488975668205 154.30178542956352 121.70727882812622 H 0.0 **** 0.06
21743 H 168.1349640051708 154.50282090769537 123.39046805186868 H 0.0 **** 0.06
21744 H 168.95302088636765 153.3332508475109 122.32658492177444 H 0.0 **** 0.06
21745 H 167.29737013514568 153.01126505985832 122.89659743136528 H 0.0 **** 0.06
21746 C 165.5018992550152 14.66150532629706 113.45068318659725 C 0.0 **** -0.24
21747 H 164.65281074125727 14.99259198137132 114.04841054875172 H 0.0 **** 0.06
21748 H 166.1143285015272 15.522340741054009 113.18062854536464 H 0.0 **** 0.06
21749 H 165.14205341280604 14.172862261496881 112.5452597462496 H 0.0 **** 0.06
21750 H 166.10024578855405 13.957634141373454 114.02955577428662 H 0.0 **** 0.06
21751 C 92.49248656245743 6.347610343746325 137.06919921549547 C 0.0 **** -0.24
21752 H 92.28148833713493 7.31537470447779 136.6134201144855 H 0.0 **** 0.06
21753 H 92.74571675658535 6.487675542331402 138.1199550793449 H 0.0 **** 0.06
21754 H 93.33000002739357 5.879489629196684 136.5520059499097 H 0.0 **** 0.06
21755 H 91.6131164720232 5.709111773357556 136.98835065851733 H 0.0 **** 0.06
21756 C 75.25840027863819 52.52243563431885 72.3431971156736 C 0.0 **** -0.24
21757 H 75.56735572561092 53.17573328059886 71.52578568351079 H 0.0 **** 0.06
21758 H 74.67172312574519 51.69495862131866 71.94389472532822 H 0.0 **** 0.06
21759 H 74.65360443385305 53.088904777494676 73.0507643289576 H 0.0 **** 0.06
21760 H 76.1410350010907 52.13174395508719 72.84896250342061 H 0.0 **** 0.06
21761 C 7.526454502239574 22.998100268642702 166.0319295996209 C 0.0 **** -0.24
21762 H 8.455709398038437 23.561512976155925 166.1124474702263 H 0.0 **** 0.06
21763 H 7.239590603358579 22.62879662248268 167.0162514937128 H 0.0 **** 0.06
21764 H 7.670507118481794 22.155973238984686 165.35503552202997 H 0.0 **** 0.06
21765 H 6.741568943639805 23.646406705693153 165.6432844008133 H 0.0 **** 0.06
21766 C 49.31071051600367 141.85729715035586 94.55126384423303 C 0.0 **** -0.24
21767 H 48.75678958819563 141.49523919039888 93.6851989972852 H 0.0 **** 0.06
21768 H 49.607537502945206 141.01180739234206 95.17192195691638 H 0.0 **** 0.06
21769 H 48.676967546910646 142.52909759850513 95.1310868446171 H 0.0 **** 0.06
21770 H 50.19870837873327 142.39207862965412 94.21676240744165 H 0.0 **** 0.06
21771 C 10.910339812826649 163.6316472886054 185.0746204364026 C 0.0 **** -0.24
21772 H 11.777294003820856 164.2595460219736 184.87021573033834 H 0.0 **** 0.06
21773 H 10.916190507019401 162.77439510789634 184.40180460762497 H 0.0 **** 0.06
21774 H 9.999401338161903 164.21042255139042 184.91925637768196 H 0.0 **** 0.06
21775 H 10.948401189889921 163.28394407407188 186.10700190161435 H 0.0 **** 0.06
21776 C 24.473691846341637 198.6629599378907 93.26811132216082 C 0.0 **** -0.24
21777 H 24.459425534126183 198.62322421706685 92.17888488601301 H 0.0 **** 0.06
21778 H 25.449596845008273 199.01371180788163 93.60515473383995 H 0.0 **** 0.06
21779 H 24.284345312136537 197.6678846631324 93.66992938613379 H 0.0 **** 0.06
21780 H 23.701270329542083 199.34895232603893 93.61543555219902 H 0.0 **** 0.06
21781 C 178.47425051379696 12.848967475700363 198.10239470747013 C 0.0 **** -0.24
21782 H 178.1532368600638 13.800900342732746 197.6776185701882 H 0.0 **** 0.06
21783 H 177.9872689968861 12.699000364495788 199.06596024754722 H 0.0 **** 0.06
21784 H 179.5555298134864 12.859544067975207 198.2391239701461 H 0.0 **** 0.06
21785 H 178.20144921176976 12.039650941567459 197.42627500948117 H 0.0 **** 0.06
21786 C 107.2906834941092 171.75373651106753 133.04480506077266 C 0.0 **** -0.24
21787 H 106.77833361394039 171.7870076343678 134.0061532331017 H 0.0 **** 0.06
21788 H 106.59803063738275 172.04503677076866 132.25415286364523 H 0.0 **** 0.06
21789 H 107.64862945388455 170.74148207043987 132.85973670429803 H 0.0 **** 0.06
21790 H 108.13552224259024 172.44218393656487 133.05988187118794 H 0.0 **** 0.06
21791 C 13.11988323888989 80.65017964191975 94.77561095448175 C 0.0 **** -0.24
21792 H 13.574806221582953 80.62287753278207 93.78591436588545 H 0.0 **** 0.06
21793 H 13.869770861706158 80.94357345457203 95.5107669397546 H 0.0 **** 0.06
21794 H 12.733402542506113 79.66130440545186 95.02487015250568 H 0.0 **** 0.06
21795 H 12.302991641785042 81.37100321565228 94.78119227324339 H 0.0 **** 0.06
21796 C 164.67130620200078 63.467986527238736 188.51562519265087 C 0.0 **** -0.24
21797 H 165.66831848823307 63.306723783021226 188.92638001606093 H 0.0 **** 0.06
21798 H 164.51612960057412 64.53286999574932 188.34616996424091 H 0.0 **** 0.06
21799 H 163.9255594238682 63.098284923744316 189.21973396271855 H 0.0 **** 0.06
21800 H 164.57663996552333 62.93098865350714 187.57179720492024 H 0.0 **** 0.06
21801 C 75.50381473832293 114.48884555853246 160.72366172000065 C 0.0 **** -0.24
21802 H 75.58788234821665 115.31132219225194 160.01322206057094 H 0.0 **** 0.06
21803 H 74.59718459769732 114.61231562191281 161.31659394951464 H 0.0 **** 0.06
21804 H 76.37148435844114 114.48718821749634 161.3826316313771 H 0.0 **** 0.06
21805 H 75.45789484465408 113.54473494031217 160.1810558028332 H 0.0 **** 0.06
21806 C 148.06583025155527 66.99338847874975 72.24183612544937 C 0.0 **** -0.24
21807 H 149.00868686138207 67.42658189459692 72.57438467997366 H 0.0 **** 0.06
21808 H 147.34248613488626 67.02944312162853 73.05593256700979 H 0.0 **** 0.06
21809 H 148.2269004224122 65.9568178223114 71.94490790664622 H 0.0 **** 0.06
21810 H 147.68531182742564 67.55973299113388 71.39192124732313 H 0.0 **** 0.06
21811 C 45.90113559063987 196.26336531097812 61.84583018269967 C 0.0 **** -0.24
21812 H 45.05657458343897 196.7841964623281 62.29913288613608 H 0.0 **** 0.06
21813 H 45.97873089707771 195.26079331823968 62.2673655508367 H 0.0 **** 0.06
21814 H 46.81843275176732 196.81583560395734 62.0487566968809 H 0.0 **** 0.06
21815 H 45.748337685268666 196.1945547715508 60.7685499948235 H 0.0 **** 0.06
21816 C 27.96644350657796 7.187529857395255 74.68246919336565 C 0.0 **** -0.24
21817 H 27.042514879176267 6.65295811944619 74.46007394296515 H 0.0 **** 0.06
21818 H 27.7332432622718 8.110903757261433 75.2121133729355 H 0.0 **** 0.06
21819 H 28.483421844501933 7.421431478077672 73.75172211931715 H 0.0 **** 0.06
21820 H 28.605406522546772 6.5620860809582595 75.306254444079 H 0.0 **** 0.06
21821 C 146.4943934738933 163.65208537267483 173.26445618173585 C 0.0 **** -0.24
21822 H 145.7225107825197 163.08389523745285 173.78237484037524 H 0.0 **** 0.06
21823 H 146.81835098138055 164.48165945135253 173.89403468685677 H 0.0 **** 0.06
21824 H 146.09409121952774 164.0414410470197 172.32859511452554 H 0.0 **** 0.06
21825 H 147.3442433962074 163.00227901908673 173.05404347043265 H 0.0 **** 0.06
21826 C 129.18981065956746 97.02690996361474 22.721267309936422 C 0.0 **** -0.24
21827 H 128.71550313342402 97.18598907525177 21.752473779274396 H 0.0 **** 0.06
21828 H 128.44558699752963 97.1267220915039 23.51122766164775 H 0.0 **** 0.06
21829 H 129.97614595484146 97.76743510701226 22.86542688937891 H 0.0 **** 0.06
21830 H 129.62248819993977 96.02654466960337 22.75373461998788 H 0.0 **** 0.06
21831 C 32.390815267782614 7.019566014686973 64.44918235075599 C 0.0 **** -0.24
21832 H 33.242866267009674 7.697424442220573 64.49400105304053 H 0.0 **** 0.06
21833 H 32.24323084327045 6.68817429371056 63.4206955618227 H 0.0 **** 0.06
21834 H 31.49584556452419 7.536036315907417 64.7967270948296 H 0.0 **** 0.06
21835 H 32.581272702740705 6.1543993306485305 65.08546867784582 H 0.0 **** 0.06
21836 C 71.56895842447307 161.10678638419182 120.56044123202045 C 0.0 **** -0.24
21837 H 70.94154211098906 161.6354220077571 119.8416388490567 H 0.0 **** 0.06
21838 H 72.61659838229984 161.33332357448066 120.36358572128731 H 0.0 **** 0.06
21839 H 71.40387567781595 160.03428393536737 120.46540001606255 H 0.0 **** 0.06
21840 H 71.31067527914954 161.42676336238702 121.57008287170663 H 0.0 **** 0.06
21841 C 108.0190186679637 126.60503023349565 176.64766687244713 C 0.0 **** -0.24
21842 H 108.01965865850903 126.61967522908753 175.55751605326864 H 0.0 **** 0.06
21843 H 107.19729632405841 127.21924271703494 177.01852821909864 H 0.0 **** 0.06
21844 H 108.96472352045458 127.00180851910989 177.01607424706705 H 0.0 **** 0.06
21845 H 107.89371744364871 125.58045524236604 176.99601633054672 H 0.0 **** 0.06
21846 C 136.27334574126746 11.616234194192145 128.59866483592498 C 0.0 **** -0.24
21847 H 137.0849894407031 11.529678197490512 129.32005877539495 H 0.0 **** 0.06
21848 H 135.45774995454883 10.951594185976404 128.88663513423154 H 0.0 **** 0.06
21849 H 136.63566234923883 11.338008024826934 127.60870545818102 H 0.0 **** 0.06
21850 H 135.91413285205874 12.645033338704991 128.5783154400309 H 0.0 **** 0.06
21851 C 125.77138009459944 148.5195175922798 22.01211717402623 C 0.0 **** -0.24
21852 H 126.81230210642684 148.6249506569132 22.31778352111337 H 0.0 **** 0.06
21853 H 125.32981602632628 149.50745122058936 21.878344908750023 H 0.0 **** 0.06
21854 H 125.2206592226257 147.97643870872378 22.779288276945067 H 0.0 **** 0.06
21855 H 125.72249973989312 147.969884800868 21.071822433276566 H 0.0 **** 0.06
21856 C 198.13800748216397 15.627542973770232 54.62737548112989 C 0.0 **** -0.24
21857 H 197.47798596653237 15.89473750193605 55.45277560820546 H 0.0 **** 0.06
21858 H 199.0733127058487 15.231274037452522 55.024739025030954 H 0.0 **** 0.06
21859 H 198.344995687082 16.512989206640327 54.02559183768247 H 0.0 **** 0.06
21860 H 197.6566505383003 14.871784713209024 54.00728225334757 H 0.0 **** 0.06
21861 C 160.0026710948296 84.16352457753905 49.64396306533658 C 0.0 **** -0.24
21862 H 159.1592237484652 84.84960990161522 49.710680013418596 H 0.0 **** 0.06
21863 H 159.70181104895286 83.27182936788876 49.09311137092301 H 0.0 **** 0.06
21864 H 160.32004701192477 83.88060552384016 50.647800216653636 H 0.0 **** 0.06
21865 H 160.82820403541007 84.6507741803614 49.125447044520854 H 0.0 **** 0.06
21866 C 126.0373760933368 177.8657361298836 122.78972287739398 C 0.0 **** -0.24
21867 H 126.1420786002856 178.95088492838332 122.77755059260949 H 0.0 **** 0.06
21868 H 126.98929080925521 177.40625497161295 122.52567913676012 H 0.0 **** 0.06
21869 H 125.27708578864164 177.56668108761136 122.06808555886198 H 0.0 **** 0.06
21870 H 125.74000481673278 177.54005053693749 123.78614441701308 H 0.0 **** 0.06
21871 C 34.40081192598541 11.087929894516037 193.58222994049817 C 0.0 **** -0.24
21872 H 35.43129328838518 10.75725465397602 193.45707122747632 H 0.0 **** 0.06
21873 H 34.39068796226752 12.085118673911296 194.02343255669757 H 0.0 **** 0.06
21874 H 33.874746638860074 10.395035288577333 194.23878158117276 H 0.0 **** 0.06
21875 H 33.90678644541239 11.11494665642681 192.610869242077 H 0.0 **** 0.06
21876 C 19.74768462506377 145.37393412421807 173.87617507168613 C 0.0 **** -0.24
21877 H 18.848633134158547 144.7866858055322 174.06589469069286 H 0.0 **** 0.06
21878 H 19.599205362007012 145.98729914635334 172.9864121930833 H 0.0 **** 0.06
21879 H 20.59281319285111 144.70325719510302 173.7184035243659 H 0.0 **** 0.06
21880 H 19.948942791940652 146.01767643571537 174.73225138950465 H 0.0 **** 0.06
21881 C 32.704016775406785 20.97024714606897 71.59816884225324 C 0.0 **** -0.24
21882 H 32.2192609940106 21.903938615669233 71.88259413103219 H 0.0 **** 0.06
21883 H 32.1174262239885 20.128848936345207 71.96861625451811 H 0.0 **** 0.06
21884 H 33.7045510944684 20.93377440823815 72.03104357513905 H 0.0 **** 0.06
21885 H 32.77557586784599 20.914245530075135 70.51252121462448 H 0.0 **** 0.06
21886 C 2.7937625738438996 166.08525682942576 172.5002835893612 C 0.0 **** -0.24
21887 H 3.3884804344580814 165.7298011342142 173.34078615469517 H 0.0 **** 0.06
21888 H 1.8983634729486027 166.58288206495735 172.87354123516968 H 0.0 **** 0.06
21889 H 2.505880338718974 165.24018179832825 171.87504148450788 H 0.0 **** 0.06
21890 H 3.382122689823028 166.78859418208577 171.91088675565422 H 0.0 **** 0.06
21891 C 30.177430456403698 35.73472051749408 41.82480128850524 C 0.0 **** -0.24
21892 H 29.27609497488197 35.83578265131425 41.221961813604224 H 0.0 **** 0.06
21893 H 29.901414499260312 35.576359029808316 42.86768120938393 H 0.0 **** 0.06
21894 H 30.77542842920235 36.64266961961721 41.74117381990793 H 0.0 **** 0.06
21895 H 30.75826628218431 34.88363927192978 41.46917347608161 H 0.0 **** 0.06
21896 C 21.065696884826366 187.43171641157988 160.90670653148186 C 0.0 **** -0.24
21897 H 20.303609974867413 187.94752400603224 160.32192814218658 H 0.0 **** 0.06
21898 H 20.85280312319938 187.5550217130922 161.96860093875472 H 0.0 **** 0.06
21899 H 22.04427232549648 187.85448273452027 160.68002080775022 H 0.0 **** 0.06
21900 H 21.060768883315518 186.37155877430712 160.65398301588843 H 0.0 **** 0.06
21901 C 21.615391331760804 49.132214272077775 49.91428335830507 C 0.0 **** -0.24
21902 H 22.548093042306164 49.697083155516864 49.896779866244 H 0.0 **** 0.06
21903 H 21.74064475056656 48.24654213083586 50.536614545418445 H 0.0 **** 0.06
21904 H 21.35574661756226 48.8306777336969 48.8997918559091 H 0.0 **** 0.06
21905 H 20.82105726234124 49.755981978113084 50.322874711087735 H 0.0 **** 0.06
21906 C 154.64503685967878 182.6893857689215 83.15904987436875 C 0.0 **** -0.24
21907 H 154.65976792963568 181.68803225681881 82.7287234612719 H 0.0 **** 0.06
21908 H 154.1888649123814 182.65229082258458 84.14852388160045 H 0.0 **** 0.06
21909 H 154.06555075210247 183.3525822319562 82.51636332762769 H 0.0 **** 0.06
21910 H 155.66479454849528 183.06427200578713 83.24188242018414 H 0.0 **** 0.06
21911 C 74.160142459904 185.31397808178457 189.1232400426129 C 0.0 **** -0.24
21912 H 74.97561262002291 186.02601805543532 188.99916280550605 H 0.0 **** 0.06
21913 H 74.52566306412105 184.30567629084388 188.9258751698335 H 0.0 **** 0.06
21914 H 73.35853986850061 185.55398548396445 188.42475925299368 H 0.0 **** 0.06
21915 H 73.78180709448215 185.37071963035 190.14397185532465 H 0.0 **** 0.06
21916 C 144.60392806340383 22.25683970483942 6.960926562034274 C 0.0 **** -0.24
21917 H 143.7291442837347 21.815087478319526 6.484109003798551 H 0.0 **** 0.06
21918 H 144.33938266273918 22.59310172867933 7.963744231184762 H 0.0 **** 0.06
21919 H 144.9475372964512 23.106632442110367 6.37112008475134 H 0.0 **** 0.06
21920 H 145.39821742949502 21.513894842103326 7.024400887674034 H 0.0 **** 0.06
21921 C 35.360556852221805 160.66423592222188 182.603997384077 C 0.0 **** -0.24
21922 H 34.767222296208544 161.1032834639227 181.8021039762788 H 0.0 **** 0.06
21923 H 34.90447533233301 159.72595653908442 182.92003714761015 H 0.0 **** 0.06
21924 H 35.39797100715093 161.35304911524065 183.44767459651973 H 0.0 **** 0.06
21925 H 36.37210300707521 160.47400011279035 182.24463627662564 H 0.0 **** 0.06
21926 C 70.3658326437575 173.69867944254727 75.59365982202247 C 0.0 **** -0.24
21927 H 70.9496936351841 172.79288983263044 75.42701280108813 H 0.0 **** 0.06
21928 H 70.43872062690792 174.34412145764418 74.71826069465632 H 0.0 **** 0.06
21929 H 70.7532214661739 174.22358115615546 76.46660813862539 H 0.0 **** 0.06
21930 H 69.32246679392887 173.4312894917626 75.7633596080484 H 0.0 **** 0.06
21931 C 88.01443260703036 57.91081752612001 181.54396783098593 C 0.0 **** -0.24
21932 H 87.70417810507536 57.7560318584957 180.50988985791363 H 0.0 **** 0.06
21933 H 89.01528994960597 58.34301939048885 181.5613121667933 H 0.0 **** 0.06
21934 H 88.02173997732126 56.95468877825658 182.06756319799572 H 0.0 **** 0.06
21935 H 87.31673204557467 58.58862410444357 182.0350725406977 H 0.0 **** 0.06
21936 C 36.47767056748188 169.1481192986962 97.17081023786241 C 0.0 **** -0.24
21937 H 36.569468171473076 170.14847266444343 96.7478846845344 H 0.0 **** 0.06
21938 H 35.607191563276515 168.65124818505694 96.74117189481888 H 0.0 **** 0.06
21939 H 36.35840917995591 169.219563720745 98.25129904846418 H 0.0 **** 0.06
21940 H 37.37454422832583 168.57304362484138 96.94092703998234 H 0.0 **** 0.06
21941 C 169.27207616257402 174.76659510665533 172.39478827485596 C 0.0 **** -0.24
21942 H 169.22448568970543 174.47686776439573 173.4447334672134 H 0.0 **** 0.06
21943 H 170.2646510227985 175.1586902858561 172.17048440826744 H 0.0 **** 0.06
21944 H 168.52425168282372 175.53447554393287 172.1966018345796 H 0.0 **** 0.06
21945 H 169.07439515382606 173.89709873406238 171.76773726949577 H 0.0 **** 0.06
21946 C 109.11375224892618 174.63397909611666 90.73091439601865 C 0.0 **** -0.24
21947 H 109.70993374619104 174.10070063475408 89.99136834741967 H 0.0 **** 0.06
21948 H 108.05415559266518 174.49481994092972 90.5136395373737 H 0.0 **** 0.06
21949 H 109.35535181799341 175.6960111792662 90.69541548297525 H 0.0 **** 0.06
21950 H 109.33428808820074 174.24403252434453 91.72503376299727 H 0.0 **** 0.06
21951 C 195.54234936497159 199.1537571133531 198.4776147509531 C 0.0 **** -0.24
21952 H 195.43509677397796 198.06917974999178 198.50164625394777 H 0.0 **** 0.06
21953 H 196.2498883876926 199.43149421928624 197.69727297777706 H 0.0 **** 0.06
21954 H 195.9077993625015 199.5037660408548 199.44304197890472 H 0.0 **** 0.06
21955 H 194.57400728296577 199.6099352292547 198.27016635584548 H 0.0 **** 0.06
21956 C 127.21273212791428 24.729621749207013 194.26231363508907 C 0.0 **** -0.24
21957 H 127.88767582975521 25.583176556409 194.19058569362372 H 0.0 **** 0.06
21958 H 127.68591836149824 23.85496865716459 193.8151274809219 H 0.0 **** 0.06
21959 H 126.286967018854 24.953355125273816 193.73186379800114 H 0.0 **** 0.06
21960 H 126.99212548307295 24.52882440439504 195.3104399657804 H 0.0 **** 0.06
21961 C 72.6869266223639 51.3007209853109 37.617159988328794 C 0.0 **** -0.24
21962 H 72.64289787404994 51.48833503136831 38.690394883471456 H 0.0 **** 0.06
21963 H 71.85609405719981 50.65736920215056 37.32747668872628 H 0.0 **** 0.06
21964 H 73.62959912986372 50.81158673145788 37.37267911387855 H 0.0 **** 0.06
21965 H 72.61775938193517 52.246564515259365 37.07988297285263 H 0.0 **** 0.06
21966 C 189.02874677483578 18.378205065166952 27.331901460344454 C 0.0 **** -0.24
21967 H 189.1141325772959 17.57356558349818 26.601701318027523 H 0.0 **** 0.06
21968 H 188.24029102560831 18.137079049724377 28.045503225065886 H 0.0 **** 0.06
21969 H 188.78390237159553 19.309337028235802 26.820056575625387 H 0.0 **** 0.06
21970 H 189.9752120083176 18.491233274314425 27.859776302604075 H 0.0 **** 0.06
21971 C 122.77453540023848 141.56716579355813 36.393738193331615 C 0.0 **** -0.24
21972 H 122.94515096256316 142.31961042366638 35.62407067971287 H 0.0 **** 0.06
21973 H 123.5643339315624 141.62811685818204 37.14309655228374 H 0.0 **** 0.06
21974 H 122.77966197744146 140.57635412307877 35.93915526340476 H 0.0 **** 0.06
21975 H 121.80870849530845 141.74424157781618 36.86668029683031 H 0.0 **** 0.06
21976 C 7.818357414362062 54.68107348254871 101.87637272512833 C 0.0 **** -0.24
21977 H 8.428859714885704 55.47804721883688 101.45318900324477 H 0.0 **** 0.06
21978 H 7.8463512123678285 53.8137266743726 101.216295791345 H 0.0 **** 0.06
21979 H 6.790589191475149 55.02705333057236 101.98014689585332 H 0.0 **** 0.06
21980 H 8.20903831610201 54.405520131854956 102.85574724917333 H 0.0 **** 0.06
21981 C 121.00454453608657 80.16142559368484 122.36570496924026 C 0.0 **** -0.24
21982 H 120.69003220400302 81.11841207076884 122.782969362833 H 0.0 **** 0.06
21983 H 122.04667997643921 79.97655561605734 122.62617281159339 H 0.0 **** 0.06
21984 H 120.89955861226127 80.18762869404861 121.2806233790061 H 0.0 **** 0.06
21985 H 120.38110044614066 79.36568208292954 122.77112743317707 H 0.0 **** 0.06
21986 C 196.47632629651716 110.30643448878516 41.84655935395989 C 0.0 **** -0.24
21987 H 196.89823642850433 111.23991387755825 41.47434469815306 H 0.0 **** 0.06
21988 H 197.26968506431226 109.6955575113812 42.27677773708268 H 0.0 **** 0.06
21989 H 196.00738243543321 109.76752734120203 41.023466152985634 H 0.0 **** 0.06
21990 H 195.72997315003732 110.5247143734432 42.61020033589335 H 0.0 **** 0.06
21991 C 37.788966996878926 58.59298856381524 85.59494619534038 C 0.0 **** -0.24
21992 H 36.875474652629904 57.999919935178994 85.61630011230145 H 0.0 **** 0.06
21993 H 37.761567498889036 59.27010036334927 84.74025525943816 H 0.0 **** 0.06
21994 H 38.649973062675855 57.93074496871297 85.50629716673762 H 0.0 **** 0.06
21995 H 37.86850456647697 59.17145948672004 86.51498143051165 H 0.0 **** 0.06
21996 C 151.97776013158227 79.91360074125066 3.646319203151009 C 0.0 **** -0.24
21997 H 151.70350688821372 79.10837428735985 2.963327079036638 H 0.0 **** 0.06
21998 H 152.9218195589974 80.35454404055753 3.3262012752339842 H 0.0 **** 0.06
21999 H 152.08544041817862 79.51368745333735 4.6540418719445995 H 0.0 **** 0.06
22000 H 151.19888621641633 80.67645419332368 3.6394105966311585 H 0.0 **** 0.06
22001 C 162.9969487601853 176.52018598159972 69.75697600825998 C 0.0 **** -0.24
22002 H 163.1752072739381 175.5250303411535 70.16537759150994 H 0.0 **** 0.06
22003 H 163.5742388520694 176.64557673840872 68.84170994862797 H 0.0 **** 0.06
22004 H 163.30325967806087 177.27107047563035 70.48609383530959 H 0.0 **** 0.06
22005 H 161.9356783303645 176.63787861431473 69.53792304219283 H 0.0 **** 0.06
22006 C 194.26666131247848 46.16271282782198 24.362880270121494 C 0.0 **** -0.24
22007 H 193.44592216804625 46.137917308267205 25.07926990367457 H 0.0 **** 0.06
22008 H 194.57370824111783 45.14349458252029 24.127255472593774 H 0.0 **** 0.06
22009 H 195.1074909775449 46.70630075514032 24.79279689557555 H 0.0 **** 0.06
22010 H 193.938183524664 46.66349611980014 23.45192355938663 H 0.0 **** 0.06
22011 C 23.780368707242772 124.32222235419022 104.01487594586035 C 0.0 **** -0.24
22012 H 23.85304508953203 124.91799299116462 104.92527321867544 H 0.0 **** 0.06
22013 H 24.731574854829915 123.82119192168 103.8317091357327 H 0.0 **** 0.06
22014 H 23.54414225430081 124.97354419685234 103.1726843829498 H 0.0 **** 0.06
22015 H 22.99259857241435 123.5775024473723 104.12940612448699 H 0.0 **** 0.06
22016 C 97.42604845149845 42.91633839015975 19.46843761396906 C 0.0 **** -0.24
22017 H 97.10369905254305 43.05981504392645 18.437529771789116 H 0.0 **** 0.06
22018 H 98.33623189835748 43.48943644225258 19.64762304060423 H 0.0 **** 0.06
22019 H 97.62263790593755 41.858906973065004 19.644840740596095 H 0.0 **** 0.06
22020 H 96.64255672937315 43.257785498623846 20.14464192264532 H 0.0 **** 0.06
22021 C 88.60326984640002 140.3823782485437 105.30377082409657 C 0.0 **** -0.24
22022 H 88.18468890497252 141.01617002861613 104.52208632658088 H 0.0 **** 0.06
22023 H 87.83565105722329 140.16750678721021 106.04749210332858 H 0.0 **** 0.06
22024 H 89.43776606720698 140.8973643530566 105.78020766400812 H 0.0 **** 0.06
22025 H 88.95583806874782 139.4487941302986 104.8642255519095 H 0.0 **** 0.06
22026 C 93.93627708962563 59.44783108508932 152.40977167343044 C 0.0 **** -0.24
22027 H 94.69451399569215 59.820966932167394 153.0986128221743 H 0.0 **** 0.06
22028 H 94.06734110839255 58.374926465912125 152.27174425844845 H 0.0 **** 0.06
22029 H 94.03844491025916 59.953518772953444 151.44935697608082 H 0.0 **** 0.06
22030 H 92.94568348795713 59.643330328161056 152.8198448802774 H 0.0 **** 0.06
22031 C 176.5642314926391 64.1961744182521 99.0962363562212 C 0.0 **** -0.24
22032 H 176.00702577174854 63.31612684684461 99.41671994346837 H 0.0 **** 0.06
22033 H 176.7886897766823 64.81852039954714 99.96261135870952 H 0.0 **** 0.06
22034 H 175.9668922133566 64.7654460671942 98.38368722215165 H 0.0 **** 0.06
22035 H 177.49512913296604 63.88402040070167 98.62188927375746 H 0.0 **** 0.06
22036 C 199.05481376213766 10.544955562715131 57.12897375596587 C 0.0 **** -0.24
22037 H 198.55786215734278 11.478343085744598 56.86576375874088 H 0.0 **** 0.06
22038 H 200.03804908267676 10.762477991917876 57.54574704246812 H 0.0 **** 0.06
22039 H 199.16594893342028 9.92874121688692 56.236845663683084 H 0.0 **** 0.06
22040 H 198.4571074726103 10.0116251248931 57.86777041620918 H 0.0 **** 0.06
22041 C 87.28486630932241 23.261109148532 90.91468666019256 C 0.0 **** -0.24
22042 H 86.96374622762562 24.1902481675273 91.38480286310829 H 0.0 **** 0.06
22043 H 87.99872761824065 23.48368236949412 90.12127258988727 H 0.0 **** 0.06
22044 H 86.41943343692924 22.749954665544507 90.49228077396322 H 0.0 **** 0.06
22045 H 87.75727139712262 22.621928946755688 91.66024804178193 H 0.0 **** 0.06
22046 C 175.21620647038452 4.488292676568847 5.909326794232015 C 0.0 **** -0.24
22047 H 174.54193552609243 5.3267799918320975 5.735956119790217 H 0.0 **** 0.06
22048 H 175.18585192806844 3.8151425198621496 5.051724216351943 H 0.0 **** 0.06
22049 H 174.90468310602267 3.950309798543117 6.805198615096174 H 0.0 **** 0.06
22050 H 176.23171906668065 4.86008887210221 6.043059447430437 H 0.0 **** 0.06
22051 C 174.31671418881365 100.58143806148695 195.69369685520297 C 0.0 **** -0.24
22052 H 173.95722197603584 101.6100830592066 195.68102850654194 H 0.0 **** 0.06
22053 H 175.3608569826272 100.5649134553392 196.0071876215492 H 0.0 **** 0.06
22054 H 174.22969200199145 100.15393625821164 194.6944160905433 H 0.0 **** 0.06
22055 H 173.71785972546937 99.99611968349066 196.3920709875905 H 0.0 **** 0.06
22056 C 92.68730039483694 136.98702636112534 185.095143404665 C 0.0 **** -0.24
22057 H 93.44262201941223 137.10140077492 185.87324972102618 H 0.0 **** 0.06
22058 H 92.398960459318 137.970048502965 184.72164206403266 H 0.0 **** 0.06
22059 H 91.81337024447964 136.48441911127404 185.50899327723877 H 0.0 **** 0.06
22060 H 93.09478352910753 136.393281056832 184.27747863796543 H 0.0 **** 0.06
22061 C 157.5984935153959 176.24490607058817 187.85821672050412 C 0.0 **** -0.24
22062 H 156.98334530602494 176.1881331749182 186.96050396658708 H 0.0 **** 0.06
22063 H 156.95662491349884 176.34530667535338 188.73331162604546 H 0.0 **** 0.06
22064 H 158.2586930495958 177.11020955849608 187.79111863484704 H 0.0 **** 0.06
22065 H 158.19556827174864 175.33814049580334 187.94743879938633 H 0.0 **** 0.06
22066 C 62.6348891169045 102.96579756939497 91.85985086453903 C 0.0 **** -0.24
22067 H 62.05767045452413 103.85477014522257 91.60584681980939 H 0.0 **** 0.06
22068 H 63.01417100305346 103.05768985971096 92.87760905820281 H 0.0 **** 0.06
22069 H 63.470194395099725 102.86474643385097 91.16798425120882 H 0.0 **** 0.06
22070 H 61.99545835462669 102.08539000154198 91.78733519853719 H 0.0 **** 0.06
22071 C 130.53739518539393 91.13318486646915 72.58094091581371 C 0.0 **** -0.24
22072 H 130.39379732742952 91.10769672897231 71.50090865493785 H 0.0 **** 0.06
22073 H 131.54024456003032 90.78272961386034 72.82303368549096 H 0.0 **** 0.06
22074 H 129.80063440090737 90.48831404684344 73.06023713028111 H 0.0 **** 0.06
22075 H 130.41290824866047 92.15499722155576 72.93944641977916 H 0.0 **** 0.06
22076 C 77.51401370345445 91.35766977318696 104.55625175004215 C 0.0 **** -0.24
22077 H 78.37716195141917 90.72121157728418 104.7538138201786 H 0.0 **** 0.06
22078 H 77.43491977061228 91.53797718718573 103.48401853095606 H 0.0 **** 0.06
22079 H 77.63649007227195 92.30698923616254 105.07787688643955 H 0.0 **** 0.06
22080 H 76.60986494241189 90.86278671956717 104.90992030948169 H 0.0 **** 0.06
22081 C 55.35231451798302 171.44171633320212 194.63740304490324 C 0.0 **** -0.24
22082 H 54.573563567502106 170.74530909717313 194.32715541453524 H 0.0 **** 0.06
22083 H 54.91934148859741 172.43393352694392 194.77066261696285 H 0.0 **** 0.06
22084 H 56.127504432110754 171.48347902204563 193.87237810844982 H 0.0 **** 0.06
22085 H 55.787579384767355 171.10471023282247 195.57797789992532 H 0.0 **** 0.06
22086 C 109.05991980688844 123.38697409852867 127.15055734456303 C 0.0 **** -0.24
22087 H 108.40546828727304 123.52753612429225 126.29088985890428 H 0.0 **** 0.06
22088 H 108.54003288453615 123.69734944210387 128.057869007524 H 0.0 **** 0.06
22089 H 109.96083457840882 123.98702662910972 127.02341878858465 H 0.0 **** 0.06
22090 H 109.33313060016027 122.33450934971196 127.23093465522402 H 0.0 **** 0.06
22091 C 190.51073646233345 157.47060409432788 101.83416212344059 C 0.0 **** -0.24
22092 H 189.89607829361438 157.8564743661786 101.02092528817275 H 0.0 **** 0.06
22093 H 189.99985108198243 157.633376749124 102.78359716130785 H 0.0 **** 0.06
22094 H 191.46959307850085 157.98905147859767 101.84287907996622 H 0.0 **** 0.06
22095 H 190.67655754357915 156.40275646906036 101.68842427414563 H 0.0 **** 0.06
22096 C 104.70825847740241 120.36861276727629 90.07452273167931 C 0.0 **** -0.24
22097 H 105.30630328833229 119.62749205113468 89.54532981229417 H 0.0 **** 0.06
22098 H 105.3648719258207 121.11727111804328 90.51794255391209 H 0.0 **** 0.06
22099 H 104.1346053158619 119.87753527214366 90.86080489122207 H 0.0 **** 0.06
22100 H 104.02625368878785 120.85133642440783 89.37459200619196 H 0.0 **** 0.06
22101 C 100.81732297871551 45.51282545927347 73.24716406487823 C 0.0 **** -0.24
22102 H 100.83661136939759 45.8116613901411 74.2953891047789 H 0.0 **** 0.06
22103 H 101.76911133782991 45.05040273088633 72.98406932816215 H 0.0 **** 0.06
22104 H 100.65456521750295 46.39057542859078 72.62216520638816 H 0.0 **** 0.06
22105 H 100.00965260568918 44.798360362818556 73.08825253107938 H 0.0 **** 0.06
22106 C 43.01654052083947 49.47999417945104 21.01940991937495 C 0.0 **** -0.24
22107 H 41.98925262870537 49.15785822915855 21.189291334734847 H 0.0 **** 0.06
22108 H 43.34524929102275 50.10051843884254 21.853792862647012 H 0.0 **** 0.06
22109 H 43.06839919665782 50.05533044668867 20.095081222806925 H 0.0 **** 0.06
22110 H 43.662449428982555 48.605221029717015 20.939966134486667 H 0.0 **** 0.06
22111 C 64.51562276277451 64.19934578514663 97.52616776936051 C 0.0 **** -0.24
22112 H 64.38654734132602 63.159978165529296 97.82836997462539 H 0.0 **** 0.06
22113 H 63.61412682617161 64.76160884038245 97.7699135764278 H 0.0 **** 0.06
22114 H 64.69450944545471 64.24560374812188 96.45180216844557 H 0.0 **** 0.06
22115 H 65.36583319644623 64.62824796551752 98.054799759317 H 0.0 **** 0.06
22116 C 174.45975205740532 143.22370693599134 37.96610449009768 C 0.0 **** -0.24
22117 H 173.772790960535 143.16806220552985 38.81010910001143 H 0.0 **** 0.06
22118 H 175.4437777785901 143.53492043940773 38.3192521305626 H 0.0 **** 0.06
22119 H 174.08688444137385 143.94676788553818 37.24129260624085 H 0.0 **** 0.06
22120 H 174.53619119025726 142.24336045103448 37.49456919350837 H 0.0 **** 0.06
22121 C 39.715411183044324 170.8996085894727 146.54311950516606 C 0.0 **** -0.24
22122 H 39.20558546293404 169.93767077186692 146.60580184488612 H 0.0 **** 0.06
22123 H 40.793120062460304 170.73778579912357 146.52280603476748 H 0.0 **** 0.06
22124 H 39.45550653869208 171.50515824814642 147.4109316118766 H 0.0 **** 0.06
22125 H 39.40788681502252 171.4154861983467 145.63352963217835 H 0.0 **** 0.06
22126 C 149.36585209843395 42.596432919402844 126.91720476018719 C 0.0 **** -0.24
22127 H 149.74446515938448 41.809410621369636 127.56920762027903 H 0.0 **** 0.06
22128 H 148.40209835064562 42.94433503350993 127.29091928438879 H 0.0 **** 0.06
22129 H 149.24431128226888 42.20473581910625 125.90793776567375 H 0.0 **** 0.06
22130 H 150.0709373659104 43.426736697438 126.90254000005473 H 0.0 **** 0.06
22131 C 190.81454419063982 16.672194310786637 116.38725959081646 C 0.0 **** -0.24
22132 H 191.0578608600606 17.076023092492505 117.36975792902064 H 0.0 **** 0.06
22133 H 191.72092640261076 16.6147615131096 115.7838820481665 H 0.0 **** 0.06
22134 H 190.0923823821472 17.325130000578085 115.89591550084495 H 0.0 **** 0.06
22135 H 190.38729459930914 15.676563465604957 116.49901222147955 H 0.0 **** 0.06
22136 C 156.22358932897833 105.12095504162454 106.49822181027054 C 0.0 **** -0.24
22137 H 155.7957763764037 104.18640251866987 106.86163940760309 H 0.0 **** 0.06
22138 H 155.42115916400178 105.78732903356195 106.1800862442343 H 0.0 **** 0.06
22139 H 156.88232896604035 104.91578691423751 105.6551294161369 H 0.0 **** 0.06
22140 H 156.7928970348429 105.5941245518838 107.29806868652133 H 0.0 **** 0.06
22141 C 68.53025691451181 87.67302152057914 8.201659699791662 C 0.0 **** -0.24
22142 H 67.98326093283771 86.73159190505245 8.254587589965155 H 0.0 **** 0.06
22143 H 69.42560690185513 87.53898791584157 7.594760143132675 H 0.0 **** 0.06
22144 H 68.81515565339498 87.98563141449563 9.206745997832854 H 0.0 **** 0.06
22145 H 67.89636164450985 88.43663710737525 7.750623437057811 H 0.0 **** 0.06
22146 C 82.03192563328489 7.868959817620173 95.01134456432914 C 0.0 **** -0.24
22147 H 82.6165951613541 8.54404327499001 94.3858850808881 H 0.0 **** 0.06
22148 H 82.4995808362724 6.88447761861714 95.01842200411284 H 0.0 **** 0.06
22149 H 81.02088711650242 7.789386633790812 94.61352440395115 H 0.0 **** 0.06
22150 H 81.99143316544294 8.260758225033747 96.0281641506873 H 0.0 **** 0.06
22151 C 105.49137368573525 146.99138250998578 198.98637437479152 C 0.0 **** -0.24
22152 H 104.82459937305686 147.28948728708673 199.7952033001945 H 0.0 **** 0.06
22153 H 105.14072281839313 146.0536429984707 198.5547306890171 H 0.0 **** 0.06
22154 H 106.49945187332716 146.85634769156763 199.37912322703522 H 0.0 **** 0.06
22155 H 105.50073545962016 147.76409096625753 198.2189210283628 H 0.0 **** 0.06
22156 C 189.47423942043395 37.982439403713386 117.00792782890602 C 0.0 **** -0.24
22157 H 190.4558362276467 38.11051362540468 116.54942000048212 H 0.0 **** 0.06
22158 H 189.5704481037235 37.37156764219486 117.90576148372588 H 0.0 **** 0.06
22159 H 188.80658595863287 37.48836022561136 116.3021606573391 H 0.0 **** 0.06
22160 H 189.06752476671585 38.9575807721794 117.27188452733796 H 0.0 **** 0.06
22161 C 9.458011395938264 57.8476505081785 138.57387513156237 C 0.0 **** -0.24
22162 H 9.147887546777788 57.20669486668055 137.74799029247794 H 0.0 **** 0.06
22163 H 8.783752804682564 57.703908152333554 139.41780235387716 H 0.0 **** 0.06
22164 H 9.425745793653128 58.88991279306384 138.25569758165466 H 0.0 **** 0.06
22165 H 10.474293240444197 57.5899980354468 138.8715899156348 H 0.0 **** 0.06
22166 C 108.04474103945415 101.5453112358004 23.09170772454786 C 0.0 **** -0.24
22167 H 107.84990697573284 100.47307744522084 23.074443169497272 H 0.0 **** 0.06
22168 H 108.14680768865199 101.91186782093789 22.07060570377206 H 0.0 **** 0.06
22169 H 108.96657695945933 101.73773740898025 23.64165900578331 H 0.0 **** 0.06
22170 H 107.21558842140249 102.05670073900149 23.58135903803577 H 0.0 **** 0.06
22171 C 182.08281725307685 171.9780380427161 157.22586949540636 C 0.0 **** -0.24
22172 H 182.0693518118934 172.26562809152907 158.27696716891933 H 0.0 **** 0.06
22173 H 181.39114443383153 171.1499389277562 157.06732841230206 H 0.0 **** 0.06
22174 H 183.0901991387892 171.67000941067428 156.946807192087 H 0.0 **** 0.06
22175 H 181.77855424352146 172.82718432048796 156.61311805832696 H 0.0 **** 0.06
22176 C 49.51430999445191 59.07074987187298 182.91187988679374 C 0.0 **** -0.24
22177 H 50.29456221470687 59.533521663321835 182.30818840195514 H 0.0 **** 0.06
22178 H 49.61777839168249 59.39445392687185 183.94778995462792 H 0.0 **** 0.06
22179 H 49.60783568154332 57.98702574727906 182.85755118438044 H 0.0 **** 0.06
22180 H 48.53714077686965 59.37062607429232 182.53294681661063 H 0.0 **** 0.06
22181 C 40.06091750027903 7.273185177099165 159.29454902724098 C 0.0 **** -0.24
22182 H 40.76400790430233 6.921687659522384 160.05034005851604 H 0.0 **** 0.06
22183 H 39.600582271590014 8.202590354282627 159.631678384236 H 0.0 **** 0.06
22184 H 39.28849675778815 6.520305879245008 159.13949539520564 H 0.0 **** 0.06
22185 H 40.59114822043696 7.448415057958044 158.35883029822276 H 0.0 **** 0.06
22186 C 180.36216215029089 110.52308701714574 59.02810688498744 C 0.0 **** -0.24
22187 H 180.3382024391849 110.85109188579801 60.067535781502556 H 0.0 **** 0.06
22188 H 181.09144590499466 111.1165187440055 58.47654666535607 H 0.0 **** 0.06
22189 H 179.37572525295764 110.65385229634916 58.5831154544677 H 0.0 **** 0.06
22190 H 180.64276134042714 109.4701215496757 58.98630347243062 H 0.0 **** 0.06
22191 C 140.34112452662254 180.30696239658468 137.1667932904788 C 0.0 **** -0.24
22192 H 141.37873289702887 180.25663560155502 136.83597494672907 H 0.0 **** 0.06
22193 H 140.06822748110025 179.36652213607076 137.64746681916301 H 0.0 **** 0.06
22194 H 139.69341472284012 180.4788527163183 136.3080917273457 H 0.0 **** 0.06
22195 H 140.22605797791445 181.12546905819738 137.87811335885448 H 0.0 **** 0.06
22196 C 20.74555859772508 54.59670545769983 17.292723523484653 C 0.0 **** -0.24
22197 H 20.219413425924415 54.37023592493156 18.219917400105487 H 0.0 **** 0.06
22198 H 20.702415047522237 53.73191813849252 16.630906932064022 H 0.0 **** 0.06
22199 H 21.785338197133967 54.83384224646052 17.514757709018028 H 0.0 **** 0.06
22200 H 20.27313340117945 55.450644128487525 16.80680390929615 H 0.0 **** 0.06
22201 C 148.2334325209969 155.5083323345504 139.37534235611406 C 0.0 **** -0.24
22202 H 148.20980534881753 154.41929718746604 139.35128271002793 H 0.0 **** 0.06
22203 H 148.45442739076435 155.84428596102026 140.38810693658684 H 0.0 **** 0.06
22204 H 147.26288990314995 155.89899534956513 139.06652500285202 H 0.0 **** 0.06
22205 H 149.004006302134 155.8699707637367 138.6946637446531 H 0.0 **** 0.06
22206 C 19.9579135002532 29.27063284662836 104.28198808214012 C 0.0 **** -0.24
22207 H 20.67114750321872 29.38032679473008 103.46405458072752 H 0.0 **** 0.06
22208 H 20.12595665967541 30.05767342823259 105.01798830576061 H 0.0 **** 0.06
22209 H 20.09324980420314 28.297575700071036 104.75306613767145 H 0.0 **** 0.06
22210 H 18.943642039643123 29.348228212140157 103.89146660015851 H 0.0 **** 0.06
22211 C 147.8621745202794 71.62303986298281 139.12079487241687 C 0.0 **** -0.24
22212 H 147.1546833317041 70.90793852253358 139.54087341186937 H 0.0 **** 0.06
22213 H 148.87963621094846 71.26801306870568 139.2879576367219 H 0.0 **** 0.06
22214 H 147.73002834665047 72.59126679319563 139.60366305569914 H 0.0 **** 0.06
22215 H 147.6838128067283 71.72384500751438 138.0499713034361 H 0.0 **** 0.06
22216 C 105.79450261255556 172.12490075708888 94.0264522841023 C 0.0 **** -0.24
22217 H 106.7807676152859 172.37411303569814 93.63711023603608 H 0.0 **** 0.06
22218 H 105.74648446775467 172.38169745734348 95.08482197433747 H 0.0 **** 0.06
22219 H 105.61355020477058 171.05717180573077 93.90333530102768 H 0.0 **** 0.06
22220 H 105.03590530926394 172.6873500148156 93.48141956667851 H 0.0 **** 0.06
22221 C 27.322889077885577 195.30837606566257 199.05190450822752 C 0.0 **** -0.24
22222 H 27.081480781578648 196.2847213266566 198.63302191833483 H 0.0 **** 0.06
22223 H 26.83010822017384 194.53000612605746 198.46786770951772 H 0.0 **** 0.06
22224 H 26.979181208543537 195.2600384024616 200.0851421634215 H 0.0 **** 0.06
22225 H 28.40246811596286 195.15649634102 199.02120658726489 H 0.0 **** 0.06
22226 C 76.04266735259858 109.52719756518508 91.48446288797598 C 0.0 **** -0.24
22227 H 76.57467410518349 110.07332542582651 92.26291316860835 H 0.0 **** 0.06
22228 H 76.67115298175946 108.71496317935012 91.11723158397956 H 0.0 **** 0.06
22229 H 75.8055758935329 110.2027303013439 90.66271667488485 H 0.0 **** 0.06
22230 H 75.12013994667915 109.1158117731429 91.89435995099817 H 0.0 **** 0.06
22231 C 2.822147568175666 178.80228010731923 58.035927934246345 C 0.0 **** -0.24
22232 H 3.100860520878939 178.5072648102477 57.02386826911187 H 0.0 **** 0.06
22233 H 3.38760831417585 178.21003355640315 58.75581394170341 H 0.0 **** 0.06
22234 H 1.755478282219542 178.63198853506083 58.182543421031 H 0.0 **** 0.06
22235 H 3.0437940095113163 179.86008500563946 58.179692840948576 H 0.0 **** 0.06
22236 C 63.387896142216434 106.63400449929765 63.22976131181389 C 0.0 **** -0.24
22237 H 64.28746860755295 107.24834994996684 63.26850057167405 H 0.0 **** 0.06
22238 H 62.51418449811075 107.25817721492328 63.42320152390448 H 0.0 **** 0.06
22239 H 63.44977956849006 105.85086406038016 63.9845401862608 H 0.0 **** 0.06
22240 H 63.300044298798085 106.18228321419028 62.24201610095486 H 0.0 **** 0.06
22241 C 14.604871621945023 197.33957770466043 33.44203066368624 C 0.0 **** -0.24
22242 H 14.490087489639038 198.41917097316116 33.543271357913795 H 0.0 **** 0.06
22243 H 14.056289892280518 196.997896224827 32.563905644423244 H 0.0 **** 0.06
22244 H 14.211148867825187 196.84766329743198 34.331661091717365 H 0.0 **** 0.06
22245 H 15.661046821444103 197.0964378325445 33.32930703623708 H 0.0 **** 0.06
22246 C 30.121684412190234 189.89484816529944 176.3039405189384 C 0.0 **** -0.24
22247 H 31.135178177217597 189.49811850683992 176.36953522306135 H 0.0 **** 0.06
22248 H 29.993060521387264 190.68377328216047 177.04692692470232 H 0.0 **** 0.06
22249 H 29.40635390105541 189.095801184162 176.49508139365028 H 0.0 **** 0.06
22250 H 29.955203073150585 190.30290387804843 175.30756500873684 H 0.0 **** 0.06
22251 C 198.5551906961792 20.208402285375115 131.50477032127787 C 0.0 **** -0.24
22252 H 199.27442787861008 19.768795926798532 130.81370678749238 H 0.0 **** 0.06
22253 H 197.57705532046583 19.75254918879841 131.35088456413052 H 0.0 **** 0.06
22254 H 198.48902384263062 21.281276178474855 131.32587027920843 H 0.0 **** 0.06
22255 H 198.8821502875875 20.030413024743154 132.52965907133242 H 0.0 **** 0.06
22256 C 131.58776459550364 116.04379791691619 6.355678293209877 C 0.0 **** -0.24
22257 H 131.91022171377102 115.39877043911588 5.538440483214806 H 0.0 **** 0.06
22258 H 132.46156071038305 116.40920387662615 6.896790623701101 H 0.0 **** 0.06
22259 H 130.94947257832737 115.47801771040128 7.035041790709947 H 0.0 **** 0.06
22260 H 131.0298033795331 116.88919964152151 5.95244027521364 H 0.0 **** 0.06
22261 C 25.556843102142153 193.46325982215274 89.78633552388749 C 0.0 **** -0.24
22262 H 26.573121020172636 193.4569069920829 89.39085285372153 H 0.0 **** 0.06
22263 H 25.575909271118803 193.17855747628818 90.83937720665313 H 0.0 **** 0.06
22264 H 24.945542955898077 192.75458903194004 89.22900842931915 H 0.0 **** 0.06
22265 H 25.135867757651596 194.4636537265909 89.68756573948735 H 0.0 **** 0.06
22266 C 115.96790039078303 119.90648869364753 146.13519327746346 C 0.0 **** -0.24
22267 H 115.15943475621046 119.29658065476471 145.73304011323404 H 0.0 **** 0.06
22268 H 116.781036509123 119.95566124961752 145.40997508518296 H 0.0 **** 0.06
22269 H 116.33334804036488 119.46015201936007 147.06056957512928 H 0.0 **** 0.06
22270 H 115.59954533528355 120.91186326529976 146.3372877822859 H 0.0 **** 0.06
22271 C 4.1813355853484495 177.57590396150303 166.04171257426395 C 0.0 **** -0.24
22272 H 3.2721935154369675 177.47901273251512 165.44843905855583 H 0.0 **** 0.06
22273 H 4.503118952140845 176.5893301342876 166.37635603676776 H 0.0 **** 0.06
22274 H 3.9850200985124147 178.20708073042226 166.90723366239075 H 0.0 **** 0.06
22275 H 4.965534827549114 178.02675907917205 165.43318738724366 H 0.0 **** 0.06
22276 C 119.3010418295543 124.71842314593906 142.1805783065637 C 0.0 **** -0.24
22277 H 118.6692607557577 125.50777796419425 141.77547919548795 H 0.0 **** 0.06
22278 H 120.2173033307433 125.15585924074634 142.57941442177759 H 0.0 **** 0.06
22279 H 119.5509999453553 124.01118408978701 141.39003891495793 H 0.0 **** 0.06
22280 H 118.76887900296336 124.19977747134982 142.97738948298252 H 0.0 **** 0.06
22281 C 83.59405983376934 160.8613385935102 196.9232565572342 C 0.0 **** -0.24
22282 H 83.61144088503758 160.3618904940288 197.89212042010854 H 0.0 **** 0.06
22283 H 84.45092208224165 160.53529599515406 196.3319308952611 H 0.0 **** 0.06
22284 H 83.64386735542516 161.9398076958534 197.070410454813 H 0.0 **** 0.06
22285 H 82.6728132062658 160.60747566214496 196.3997282134593 H 0.0 **** 0.06
22286 C 98.51898094371003 36.857415346546645 127.58356957256086 C 0.0 **** -0.24
22287 H 98.71199543333006 36.01280267921463 126.92318975641021 H 0.0 **** 0.06
22288 H 98.26752561515278 36.490314755633605 128.57913126254616 H 0.0 **** 0.06
22289 H 97.68625029168004 37.44212092973446 127.19105109864213 H 0.0 **** 0.06
22290 H 99.40850705725737 37.48468815415522 127.6413778745918 H 0.0 **** 0.06
22291 C 52.418856545133735 151.48240427506968 155.54315516764797 C 0.0 **** -0.24
22292 H 53.467803932087065 151.7347644547183 155.69672401129188 H 0.0 **** 0.06
22293 H 52.17575526467982 151.56921765023156 154.48452025831875 H 0.0 **** 0.06
22294 H 51.793683031826816 152.16694699256016 156.11704282507074 H 0.0 **** 0.06
22295 H 52.238571276769136 150.4600722609173 155.87529994732262 H 0.0 **** 0.06
22296 C 97.86250410259225 29.369497273658 38.25630690994183 C 0.0 **** -0.24
22297 H 98.4742928060571 29.93988349353026 38.95471138410639 H 0.0 **** 0.06
22298 H 97.0160767178563 28.93371012419186 38.78799473693462 H 0.0 **** 0.06
22299 H 98.46175665313692 28.574913037865258 37.81218086153325 H 0.0 **** 0.06
22300 H 97.49621212992176 30.030960081238447 37.47036616442949 H 0.0 **** 0.06
22301 C 183.46914039453623 121.7317804486575 134.2337186255976 C 0.0 **** -0.24
22302 H 182.86730984804984 121.91245835087696 133.34282851983778 H 0.0 **** 0.06
22303 H 183.11807256971937 120.82694586255397 134.73129321086253 H 0.0 **** 0.06
22304 H 183.37701760914288 122.57962725053349 134.91254988310516 H 0.0 **** 0.06
22305 H 184.51384536668778 121.60691042456466 133.9474902230528 H 0.0 **** 0.06
22306 C 43.85464298452939 24.811971040314575 151.00400371678842 C 0.0 **** -0.24
22307 H 43.63752917201265 23.95533429553558 150.3662970819343 H 0.0 **** 0.06
22308 H 43.28276839570714 24.730163270032392 151.9287407833911 H 0.0 **** 0.06
22309 H 43.58013148072118 25.73072643927202 150.4862377256746 H 0.0 **** 0.06
22310 H 44.92002313009519 24.831020124755696 151.23576648768164 H 0.0 **** 0.06
22311 C 35.23814735262255 190.18433186192982 140.7494008057511 C 0.0 **** -0.24
22312 H 34.54998103009393 191.00633567894684 140.94757126023475 H 0.0 **** 0.06
22313 H 34.670454388433654 189.26992940905768 140.57627501066378 H 0.0 **** 0.06
22314 H 35.89671212850578 190.04713545890502 141.60718007217818 H 0.0 **** 0.06
22315 H 35.834414264766934 190.4148951628492 139.86649593062748 H 0.0 **** 0.06
22316 C 16.122846951270787 2.346419897036057 93.55254723960675 C 0.0 **** -0.24
22317 H 17.13179106132816 2.1773358697228886 93.92940937250006 H 0.0 **** 0.06
22318 H 16.168955088734492 2.9672716845047518 92.65691739681378 H 0.0 **** 0.06
22319 H 15.530037909141697 2.8523052246718947 94.31466347648666 H 0.0 **** 0.06
22320 H 15.66133325550635 1.3902025761286367 93.30856117516979 H 0.0 **** 0.06
22321 C 30.135187777647673 74.22129133268506 8.811966381898486 C 0.0 **** -0.24
22322 H 29.31040340582932 74.43667349529018 8.132920036623858 H 0.0 **** 0.06
22323 H 30.164211131860313 73.15087011118932 9.018167154788074 H 0.0 **** 0.06
22324 H 29.990365541573468 74.76778615085651 9.743307668825736 H 0.0 **** 0.06
22325 H 31.074394739978388 74.5286533540284 8.352163652607544 H 0.0 **** 0.06
22326 C 38.84714587979133 65.08114607316261 103.84398233778319 C 0.0 **** -0.24
22327 H 38.69510191704691 64.32801905660332 104.61716925786115 H 0.0 **** 0.06
22328 H 38.229786679097074 65.95357610053443 104.06107258383716 H 0.0 **** 0.06
22329 H 38.56586629568676 64.66889174847563 102.87531581404548 H 0.0 **** 0.06
22330 H 39.89695277036422 65.37441981656569 103.8241405934169 H 0.0 **** 0.06
22331 C 165.00177749763736 134.03010157955003 10.159657266485908 C 0.0 **** -0.24
22332 H 163.9557201749658 134.3331742240427 10.214088440499893 H 0.0 **** 0.06
22333 H 165.6395998969211 134.88312904879024 10.39060834301091 H 0.0 **** 0.06
22334 H 165.2233939723264 133.6712831075497 9.154186660009714 H 0.0 **** 0.06
22335 H 165.18628492888348 133.23219268942933 10.879357971990828 H 0.0 **** 0.06
22336 C 155.02090538649585 153.5357631494682 95.7660910605556 C 0.0 **** -0.24
22337 H 154.3299449973071 152.96380207487334 96.38491327992205 H 0.0 **** 0.06
22338 H 155.77272939010356 154.00600453583644 96.40042803920082 H 0.0 **** 0.06
22339 H 154.47048925444963 154.30504383157074 95.22393424868929 H 0.0 **** 0.06
22340 H 155.5100045763997 152.8690933187261 95.05510721790125 H 0.0 **** 0.06
22341 C 73.99297802047465 93.12846769029699 24.436671788454845 C 0.0 **** -0.24
22342 H 73.00302835309691 93.57773541271493 24.52116362815798 H 0.0 **** 0.06
22343 H 74.62573926135389 93.49301533517337 25.24608448670668 H 0.0 **** 0.06
22344 H 74.43485365251126 93.40118044495759 23.478615240778197 H 0.0 **** 0.06
22345 H 73.90608250838285 92.04470848386117 24.50203077441762 H 0.0 **** 0.06
22346 C 66.70493425955021 190.23049322739277 80.77844595760007 C 0.0 **** -0.24
22347 H 66.14150876075485 190.42989771401434 81.69043294120559 H 0.0 **** 0.06
22348 H 66.80170372450675 191.1505992581772 80.20282869965453 H 0.0 **** 0.06
22349 H 66.17947655490968 189.48240396437322 80.18538329330104 H 0.0 **** 0.06
22350 H 67.69547260528395 189.85759964521066 81.0386532604835 H 0.0 **** 0.06
22351 C 82.66623566565812 166.108571117562 190.86150907731667 C 0.0 **** -0.24
22352 H 81.71391416976357 166.29065264689308 191.35804279755564 H 0.0 **** 0.06
22353 H 82.49024511061674 165.8966581912914 189.80610301592486 H 0.0 **** 0.06
22354 H 83.16077837115432 165.2559135413462 191.32588094751355 H 0.0 **** 0.06
22355 H 83.29952512558734 166.99084142845842 190.95435971144343 H 0.0 **** 0.06
22356 C 127.52948213514728 169.26507739645606 76.78798935484684 C 0.0 **** -0.24
22357 H 128.3579767163437 169.96997968157396 76.86244870974315 H 0.0 **** 0.06
22358 H 126.85391476273952 169.40809277940295 77.63170436646419 H 0.0 **** 0.06
22359 H 127.91721328514524 168.24720608136508 76.799178162933 H 0.0 **** 0.06
22360 H 126.989491960923 169.43802147510203 75.85672588312963 H 0.0 **** 0.06
22361 C 185.5104937274665 33.671071535001374 93.20735601735817 C 0.0 **** -0.24
22362 H 185.6222797704786 32.71406521521408 93.7160980411588 H 0.0 **** 0.06
22363 H 184.81816555846484 33.5602462142364 92.37138521181518 H 0.0 **** 0.06
22364 H 186.48081205617706 33.999109443988004 92.83414674595653 H 0.0 **** 0.06
22365 H 185.12070606043437 34.41085721178925 93.90637991106135 H 0.0 **** 0.06
22366 C 166.48366919496823 96.60995886641646 169.75852322405171 C 0.0 **** -0.24
22367 H 167.54915853400522 96.48309650894683 169.94991311563777 H 0.0 **** 0.06
22368 H 165.92512725069395 96.42666354329339 170.67649566716418 H 0.0 **** 0.06
22369 H 166.16529534941796 95.90497566455889 168.9914949119938 H 0.0 **** 0.06
22370 H 166.29628367548048 97.62765218844126 169.41646088233648 H 0.0 **** 0.06
22371 C 88.87857221286441 20.715898138316504 148.68166615552673 C 0.0 **** -0.24
22372 H 89.28202978043234 19.716473168105182 148.84298073225315 H 0.0 **** 0.06
22373 H 87.8929750205337 20.639334780318677 148.2208755944101 H 0.0 **** 0.06
22374 H 89.54404897280511 21.27537648047189 148.02483411328834 H 0.0 **** 0.06
22375 H 88.79393472081995 21.23188144914701 149.63779605730556 H 0.0 **** 0.06
22376 C 137.40114838113993 33.6469141103553 152.6457154100799 C 0.0 **** -0.24
22377 H 137.61789136580057 33.277358080133595 151.64379750623854 H 0.0 **** 0.06
22378 H 136.3217451866866 33.6913879667933 152.79152867286274 H 0.0 **** 0.06
22379 H 137.82577292358047 34.64439369930223 152.76368648031425 H 0.0 **** 0.06
22380 H 137.841215218071 32.97545016410352 153.3837933570128 H 0.0 **** 0.06
22381 C 38.342311256711184 30.057000915195914 116.24408409760684 C 0.0 **** -0.24
22382 H 38.97775284230195 30.075842595623953 117.12983049323671 H 0.0 **** 0.06
22383 H 37.31088138173487 29.867677299687898 116.54235691896267 H 0.0 **** 0.06
22384 H 38.678106480013184 29.264717964793306 115.57480016418731 H 0.0 **** 0.06
22385 H 38.40332254727019 31.016280566275498 115.73139430110916 H 0.0 **** 0.06
22386 C 60.07229018835933 17.903116120689162 65.14508180848179 C 0.0 **** -0.24
22387 H 59.483157204297484 17.220176747085787 64.53178591405265 H 0.0 **** 0.06
22388 H 59.442409499167425 18.72854206016808 65.47708334836744 H 0.0 **** 0.06
22389 H 60.903078841200966 18.29357393407338 64.55735007335898 H 0.0 **** 0.06
22390 H 60.460020942699146 17.36955667761174 66.01293425391577 H 0.0 **** 0.06
22391 C 49.479899957957315 137.01389003590083 172.65897705235088 C 0.0 **** -0.24
22392 H 50.17782793138991 137.5509421992284 173.30005985964235 H 0.0 **** 0.06
22393 H 49.94123639405299 136.0879695032236 172.31585675612638 H 0.0 **** 0.06
22394 H 49.22655447016891 137.63350684692983 171.79844828188078 H 0.0 **** 0.06
22395 H 48.57418994100061 136.7830015914592 173.21982959565503 H 0.0 **** 0.06
22396 C 109.87562560345364 113.06412669249764 56.59427482776556 C 0.0 **** -0.24
22397 H 109.4698797482325 112.39799174519376 57.35535445868203 H 0.0 **** 0.06
22398 H 110.85948827183833 112.70940346092237 56.2885080148192 H 0.0 **** 0.06
22399 H 109.96180453200165 114.07108370044415 57.00162043267716 H 0.0 **** 0.06
22400 H 109.20881709409781 113.07677683900428 55.7312683968583 H 0.0 **** 0.06
22401 C 124.88752143132888 166.64978765486381 58.496140426468784 C 0.0 **** -0.24
22402 H 124.64816850744745 166.47618672490358 57.4477628498597 H 0.0 **** 0.06
22403 H 124.4177474374016 167.5758757165475 58.828164505432454 H 0.0 **** 0.06
22404 H 125.96844535052341 166.72852358128176 58.613502357778145 H 0.0 **** 0.06
22405 H 124.51701463062696 165.81867509765567 59.095700512788824 H 0.0 **** 0.06
22406 C 7.038013658617018 173.7786793266045 63.997975424714014 C 0.0 **** -0.24
22407 H 6.323523144888327 174.6017733880912 63.96807273637705 H 0.0 **** 0.06
22408 H 7.983011559410038 174.13350384456072 64.40889050616664 H 0.0 **** 0.06
22409 H 7.199249654196848 173.40085196254398 62.988852490217255 H 0.0 **** 0.06
22410 H 6.644685830837467 172.9791138932779 64.62654764963679 H 0.0 **** 0.06
22411 C 154.63379366783255 160.13609583370834 47.86191268310223 C 0.0 **** -0.24
22412 H 155.13291122969497 160.60752340675762 47.01566663613289 H 0.0 **** 0.06
22413 H 155.35826593705625 159.95093108158403 48.65384739582663 H 0.0 **** 0.06
22414 H 154.1933480169328 159.19118918562106 47.54329889994493 H 0.0 **** 0.06
22415 H 153.8488320232341 160.79459459902762 48.23354323947632 H 0.0 **** 0.06
22416 C 166.74961090694325 183.53588700235522 54.2721546650516 C 0.0 **** -0.24
22417 H 165.87319271347792 183.17871019079016 53.73257378111191 H 0.0 **** 0.06
22418 H 167.55786136545248 182.81169194290217 54.17423951048232 H 0.0 **** 0.06
22419 H 166.50043779867366 183.66334655826856 55.325911050441434 H 0.0 **** 0.06
22420 H 167.06638016202433 184.49273669996145 53.85610707527212 H 0.0 **** 0.06
22421 C 181.5714545716512 56.34760394500745 61.43270955709852 C 0.0 **** -0.24
22422 H 180.91547319413098 56.670566503303434 62.24188464832196 H 0.0 **** 0.06
22423 H 181.27584487437736 56.840371032643986 60.50618530030215 H 0.0 **** 0.06
22424 H 181.49095115346114 55.26685977105711 61.31117792555551 H 0.0 **** 0.06
22425 H 182.6010213096234 56.61081902646711 61.673426852976206 H 0.0 **** 0.06
22426 C 52.40704077971537 141.69555599447722 134.0954600290889 C 0.0 **** -0.24
22427 H 53.38959463947634 141.39144670748152 133.73346810304852 H 0.0 **** 0.06
22428 H 51.857104012249806 142.1808470828379 133.28927779868934 H 0.0 **** 0.06
22429 H 52.5252148158458 142.39304746000653 134.9254047623252 H 0.0 **** 0.06
22430 H 51.85700799530292 140.81802694776468 134.43402962543422 H 0.0 **** 0.06
22431 C 62.85001862966901 180.99851052845864 45.251840667624265 C 0.0 **** -0.24
22432 H 62.72961889448007 180.99113336666957 46.335227102538454 H 0.0 **** 0.06
22433 H 61.92379831197988 181.3370280043262 44.78585187284955 H 0.0 **** 0.06
22434 H 63.084043509873865 179.99157272998266 44.905102545363036 H 0.0 **** 0.06
22435 H 63.660953746517976 181.67471496411784 44.98090066769481 H 0.0 **** 0.06
22436 C 22.301584672798754 70.6920613402774 158.67442187484102 C 0.0 **** -0.24
22437 H 22.494436215306905 71.63182538365947 159.19049113067396 H 0.0 **** 0.06
22438 H 21.656561796214163 70.87497704393735 157.81504592973906 H 0.0 **** 0.06
22439 H 21.810506427264556 69.9973494359914 159.35638831502445 H 0.0 **** 0.06
22440 H 23.244777610410466 70.26245190013111 158.33631168242377 H 0.0 **** 0.06
22441 C 29.0809815844857 106.58909889350838 155.55798565317522 C 0.0 **** -0.24
22442 H 28.90877851887231 106.52938461711301 156.63254136933318 H 0.0 **** 0.06
22443 H 28.28384476812495 107.1721981757861 155.09507006651523 H 0.0 **** 0.06
22444 H 29.090378573597548 105.58462871886593 155.1348697747096 H 0.0 **** 0.06
22445 H 30.040293758436576 107.07167850926282 155.3700687625685 H 0.0 **** 0.06
22446 C 199.02370258298387 100.75503097097885 101.09856679064308 C 0.0 **** -0.24
22447 H 198.02810350892008 100.59790925424852 100.6825259855745 H 0.0 **** 0.06
22448 H 199.72579554562424 100.06651341120852 100.62795789586187 H 0.0 **** 0.06
22449 H 199.00063152044544 100.57256870306446 102.1726221497571 H 0.0 **** 0.06
22450 H 199.33756390933453 101.78106838059 100.9099933127793 H 0.0 **** 0.06
22451 C 167.38577132253306 32.77563723711751 9.843017190307876 C 0.0 **** -0.24
22452 H 166.75952974562108 33.465703614459954 10.41002654009867 H 0.0 **** 0.06
22453 H 167.98020199244593 32.176228922280586 10.531207202536194 H 0.0 **** 0.06
22454 H 168.04822337451952 33.34160944752216 9.188234467568122 H 0.0 **** 0.06
22455 H 166.75334224070247 32.12225521547262 9.24310299326018 H 0.0 **** 0.06
22456 C 42.0925355677564 3.196714629134533 147.73619922990582 C 0.0 **** -0.24
22457 H 42.41018608842559 2.2348638983275464 147.33357533338514 H 0.0 **** 0.06
22458 H 41.44301173676236 3.0336357679921946 148.5961717636325 H 0.0 **** 0.06
22459 H 41.55062060690891 3.7507123311694954 146.96969456328367 H 0.0 **** 0.06
22460 H 42.96923865956926 3.7669392721855104 148.04529347697192 H 0.0 **** 0.06
22461 C 61.39452670591602 127.33286812284132 112.04544427672079 C 0.0 **** -0.24
22462 H 61.77192184207169 127.5355321211618 113.04867502671664 H 0.0 **** 0.06
22463 H 61.25388884371941 128.2737687155383 111.5138365834166 H 0.0 **** 0.06
22464 H 60.44137918324401 126.80861049419536 112.11566125985655 H 0.0 **** 0.06
22465 H 62.11089895193804 126.71328853966733 111.50603846849742 H 0.0 **** 0.06
22466 C 177.2287804797221 76.02573304590125 77.44915134241353 C 0.0 **** -0.24
22467 H 177.42667745851895 77.02078568893118 77.84761176062858 H 0.0 **** 0.06
22468 H 178.1271563973097 75.64536099201337 76.96164696069076 H 0.0 **** 0.06
22469 H 176.41713373580788 76.07885412274864 76.72454637064209 H 0.0 **** 0.06
22470 H 176.94643033099322 75.35750877923657 78.2636011180881 H 0.0 **** 0.06
22471 C 57.75898945896246 118.07641878072695 146.46279935540088 C 0.0 **** -0.24
22472 H 58.76952906136292 118.19236014417993 146.85421599899271 H 0.0 **** 0.06
22473 H 57.1763483811597 117.45204154847238 147.1407507892445 H 0.0 **** 0.06
22474 H 57.80227625805534 117.60522171252 145.48090360915887 H 0.0 **** 0.06
22475 H 57.2891706814754 119.05591430261586 146.3749898124165 H 0.0 **** 0.06
22476 C 123.80505468153748 191.12701238319505 26.763875756150412 C 0.0 **** -0.24
22477 H 124.8570332059071 190.8516245646349 26.83914472250254 H 0.0 **** 0.06
22478 H 123.19173734331295 190.34682955576992 27.214968081104587 H 0.0 **** 0.06
22479 H 123.53348473079095 191.24124857366303 25.7143389336199 H 0.0 **** 0.06
22480 H 123.63834804827783 192.06898325655766 27.286382650598966 H 0.0 **** 0.06
22481 C 63.796478015970365 15.456948868575694 146.4646516434487 C 0.0 **** -0.24
22482 H 63.64407296622102 16.457092722923548 146.87174828849612 H 0.0 **** 0.06
22483 H 64.7596378186434 15.072008607875702 146.7993498174946 H 0.0 **** 0.06
22484 H 63.78113626491938 15.502831411804792 145.375763171919 H 0.0 **** 0.06
22485 H 63.000324483014396 14.798747813569534 146.81210322166456 H 0.0 **** 0.06
22486 C 110.56728007554278 120.80212988781796 164.10121137379247 C 0.0 **** -0.24
22487 H 111.1638084641811 121.6509380298744 163.76596025134586 H 0.0 **** 0.06
22488 H 109.72197520724222 121.16166859082455 164.68877864939083 H 0.0 **** 0.06
22489 H 111.18350703824393 120.14417462908841 164.71327989305064 H 0.0 **** 0.06
22490 H 110.19953363251875 120.25251357535694 163.23394372502807 H 0.0 **** 0.06
22491 C 187.62168080008576 28.257432596471403 118.1832716765677 C 0.0 **** -0.24
22492 H 186.55508841154455 28.47542580771767 118.2268411142608 H 0.0 **** 0.06
22493 H 188.0099227468872 28.137908464189536 119.19551319337756 H 0.0 **** 0.06
22494 H 188.14046134820026 29.080572022524223 117.69072529675603 H 0.0 **** 0.06
22495 H 187.7823604083483 27.338355074357196 117.62117451505057 H 0.0 **** 0.06
22496 C 147.01315067502452 90.52511540522136 102.15368515124226 C 0.0 **** -0.24
22497 H 147.11165302108543 89.64847619474193 101.5130146611985 H 0.0 **** 0.06
22498 H 146.37924901965042 91.26409012341153 101.66259578998438 H 0.0 **** 0.06
22499 H 147.99816503474048 90.9542344577699 102.33550434228243 H 0.0 **** 0.06
22500 H 146.56247579263518 90.23205768678028 103.1021070061488 H 0.0 **** 0.06
22501 C 83.69147771234978 80.69673819934548 197.4277225903247 C 0.0 **** -0.24
22502 H 83.30919804836228 81.71258463823497 197.52959486898283 H 0.0 **** 0.06
22503 H 84.35649795170107 80.47411506229076 198.26267092453367 H 0.0 **** 0.06
22504 H 84.24228923482985 80.60784268836437 196.49097772006328 H 0.0 **** 0.06
22505 H 82.85887990216219 79.99358247993132 197.42849280780098 H 0.0 **** 0.06
22506 C 39.457171500572144 148.27064456477365 1.7809532515294109 C 0.0 **** -0.24
22507 H 38.60812735087285 147.65940293384577 2.085101831933713 H 0.0 **** 0.06
22508 H 40.33961278000535 147.97572794403655 2.3500229204798586 H 0.0 **** 0.06
22509 H 39.23596835242867 149.32096164843702 1.972279899781256 H 0.0 **** 0.06
22510 H 39.646151601992244 148.1279600649747 0.7176116750493691 H 0.0 **** 0.06
22511 C 126.8410052479858 86.70515337283325 179.20861267600867 C 0.0 **** -0.24
22512 H 126.4755668399383 87.00781061483542 180.19066974060576 H 0.0 **** 0.06
22513 H 126.65768686119904 87.50608364081756 178.49128932448917 H 0.0 **** 0.06
22514 H 126.32035115111509 85.8027771106099 178.8889877980402 H 0.0 **** 0.06
22515 H 127.91090987357055 86.50671226232936 179.2659701882099 H 0.0 **** 0.06
22516 C 174.70322962255273 36.751058608244946 124.04945596731349 C 0.0 **** -0.24
22517 H 175.0438544026701 35.78590711238516 124.42563285664747 H 0.0 **** 0.06
22518 H 173.7084960787822 36.64185883662252 123.61749964194743 H 0.0 **** 0.06
22519 H 175.3943498776277 37.10809717552256 123.2866926281751 H 0.0 **** 0.06
22520 H 174.66626057120615 37.46723555417546 124.86992445511879 H 0.0 **** 0.06
22521 C 49.92468068234942 22.495991649793837 160.78911469594894 C 0.0 **** -0.24
22522 H 50.05193051353376 23.562847086090983 160.60537400497012 H 0.0 **** 0.06
22523 H 48.95443944524352 22.321759597409823 161.25685593643607 H 0.0 **** 0.06
22524 H 50.715483272511094 22.14473574243769 161.4521729434801 H 0.0 **** 0.06
22525 H 49.97524577850568 21.955919881567638 159.84422035475845 H 0.0 **** 0.06
22526 C 46.42733047659313 170.10599075466342 149.11906921131407 C 0.0 **** -0.24
22527 H 47.350082838205594 169.54153875657067 149.2516161595067 H 0.0 **** 0.06
22528 H 46.263081884318396 170.74439579839384 149.98708769042923 H 0.0 **** 0.06
22529 H 45.591219516777244 169.41449168733624 149.0128939116913 H 0.0 **** 0.06
22530 H 46.50453072942092 170.72256752763553 148.22270549128106 H 0.0 **** 0.06
22531 C 130.79331561096387 78.31644837407848 146.0159113040575 C 0.0 **** -0.24
22532 H 129.98087548988536 78.87225953616462 145.54742043753114 H 0.0 **** 0.06
22533 H 131.64153689127662 78.26773335304749 145.33249180898324 H 0.0 **** 0.06
22534 H 130.45552723880218 77.30705560869836 146.2496738603708 H 0.0 **** 0.06
22535 H 131.09477707755175 78.81958241425977 146.93402882348238 H 0.0 **** 0.06
22536 C 61.91194901801765 176.65727605510523 94.00937265607502 C 0.0 **** -0.24
22537 H 62.82110130717217 177.18162569941424 94.30279255489421 H 0.0 **** 0.06
22538 H 62.12062840815281 176.0243910747836 93.14663677374065 H 0.0 **** 0.06
22539 H 61.14282197282006 177.38408332926858 93.74856534995482 H 0.0 **** 0.06
22540 H 61.564140917375084 176.0412108793205 94.83767204270183 H 0.0 **** 0.06
22541 C 103.18059053270747 86.77143182022974 63.861446472082235 C 0.0 **** -0.24
22542 H 102.25652484188973 86.20234806542464 63.75573942762087 H 0.0 **** 0.06
22543 H 103.4034822704161 87.27841254483869 62.92307422073077 H 0.0 **** 0.06
22544 H 103.99667484692108 86.093971495233 64.11265670557897 H 0.0 **** 0.06
22545 H 103.06428767026617 87.50944779194859 64.65513202230076 H 0.0 **** 0.06
22546 C 146.30833792031277 146.2971295190802 87.7193718323552 C 0.0 **** -0.24
22547 H 146.51438409931302 146.99038683420574 88.53477783315395 H 0.0 **** 0.06
22548 H 147.19446038654667 145.69388992418044 87.52258097231078 H 0.0 **** 0.06
22549 H 146.04359117778736 146.85888149903406 86.82305739096014 H 0.0 **** 0.06
22550 H 145.47935226579614 145.6464407135628 87.99769277073597 H 0.0 **** 0.06
22551 C 80.14980066364012 147.89466488486022 194.5501972809409 C 0.0 **** -0.24
22552 H 80.73650188077997 147.4033723872084 195.3258080244816 H 0.0 **** 0.06
22553 H 79.89092220857592 148.9028948195745 194.87489567244282 H 0.0 **** 0.06
22554 H 79.23877579433855 147.32533971208534 194.36775221534327 H 0.0 **** 0.06
22555 H 80.7347385633835 147.94836732246824 193.63182459440455 H 0.0 **** 0.06
22556 C 168.7770837353837 40.052719911869914 118.19473600265704 C 0.0 **** -0.24
22557 H 169.48014328435247 39.71653342134381 117.43285964173106 H 0.0 **** 0.06
22558 H 169.23434870024107 39.9546464241092 119.17981977920047 H 0.0 **** 0.06
22559 H 167.8746456003833 39.442771986519205 118.14979570087175 H 0.0 **** 0.06
22560 H 168.51951802096215 41.0963368319229 118.01522472003575 H 0.0 **** 0.06
22561 C 149.17152312014463 52.12998909866701 30.532918241886705 C 0.0 **** -0.24
22562 H 149.50114561181985 51.10132651288228 30.676751362537743 H 0.0 **** 0.06
22563 H 148.09336682432655 52.19053549547445 30.685246320871897 H 0.0 **** 0.06
22564 H 149.41428895870322 52.451094446655304 29.520171098332412 H 0.0 **** 0.06
22565 H 149.67645731045997 52.77637665039447 31.25046145929275 H 0.0 **** 0.06
22566 C 8.63765808766081 151.07613832851084 70.3063401798455 C 0.0 **** -0.24
22567 H 7.806413416084666 151.7195417594611 70.01657644752288 H 0.0 **** 0.06
22568 H 8.825906061778397 150.3478190220237 69.51615259609828 H 0.0 **** 0.06
22569 H 8.388391006534732 150.55445881163376 71.23040029031043 H 0.0 **** 0.06
22570 H 9.529448578467708 151.68305698431325 70.46059689338499 H 0.0 **** 0.06
22571 C 175.69742711148763 60.96378243505393 45.020379338027396 C 0.0 **** -0.24
22572 H 175.8655222124628 61.88142474627773 44.456718707330225 H 0.0 **** 0.06
22573 H 176.32941632151412 60.96142636158345 45.90832289728081 H 0.0 **** 0.06
22574 H 175.9423653705376 60.10398553372323 44.39586252862827 H 0.0 **** 0.06
22575 H 174.65061479935468 60.90832855531664 45.31927319118802 H 0.0 **** 0.06
22576 C 148.27193809589815 98.81171532078338 159.67549015255062 C 0.0 **** -0.24
22577 H 148.12172079948485 99.66744587612493 159.0178180100073 H 0.0 **** 0.06
22578 H 149.2196220596187 98.32891725672027 159.4346938903023 H 0.0 **** 0.06
22579 H 147.45659460201006 98.10072322720987 159.53869493422093 H 0.0 **** 0.06
22580 H 148.28970765613306 99.14895782262903 160.71227722755387 H 0.0 **** 0.06
22581 C 34.87851570764997 86.53820356070887 86.5537780885006 C 0.0 **** -0.24
22582 H 33.848904512059505 86.80976240875862 86.3214092984307 H 0.0 **** 0.06
22583 H 35.48615790635722 86.61399323409375 85.65178386671562 H 0.0 **** 0.06
22584 H 34.90796458517869 85.51362638939574 86.92669242224008 H 0.0 **** 0.06
22585 H 35.27098819140451 87.21312459929257 87.31440652844157 H 0.0 **** 0.06
22586 C 54.39630017011149 100.00738362627379 88.55809260417396 C 0.0 **** -0.24
22587 H 55.01607414352726 100.78921327464155 88.11924376665414 H 0.0 **** 0.06
22588 H 54.71923101015392 99.03550245803606 88.185515981252 H 0.0 **** 0.06
22589 H 53.35433529277441 100.1738854111681 88.2842349056391 H 0.0 **** 0.06
22590 H 54.495195246571356 100.0322949838569 89.64326257617157 H 0.0 **** 0.06
22591 C 15.574682153942433 58.0525313068959 59.47224625652859 C 0.0 **** -0.24
22592 H 15.53203102615015 57.036731007905644 59.86221326182539 H 0.0 **** 0.06
22593 H 14.576610194183544 58.49215199799656 59.490920552435966 H 0.0 **** 0.06
22594 H 15.944467369180757 58.0332063275776 58.446469405211076 H 0.0 **** 0.06
22595 H 16.246130390017797 58.65019050903763 60.089069923009504 H 0.0 **** 0.06
22596 C 178.31638493033606 67.0943998142476 193.38888358439166 C 0.0 **** -0.24
22597 H 179.19381736493693 67.30938947028989 192.77893813298405 H 0.0 **** 0.06
22598 H 177.67634205877994 66.3825325417689 192.8671846275211 H 0.0 **** 0.06
22599 H 177.76420437572045 68.0160551773237 193.5687354089925 H 0.0 **** 0.06
22600 H 178.63239572627435 66.66862331842465 194.34139355375615 H 0.0 **** 0.06
22601 C 11.46172440489238 5.808712396380926 188.2097371669932 C 0.0 **** -0.24
22602 H 11.661587589425721 6.8062430171944825 188.59949994735146 H 0.0 **** 0.06
22603 H 12.259811552075917 5.132415885742233 188.51887573803754 H 0.0 **** 0.06
22604 H 11.416856259050178 5.845087183556885 187.1216110757142 H 0.0 **** 0.06
22605 H 10.510109489810532 5.4501854405396415 188.60160850868994 H 0.0 **** 0.06
22606 C 175.8014399653853 123.15020786329592 17.789690815618826 C 0.0 **** -0.24
22607 H 176.13209465079325 123.92534884512219 17.098165960166455 H 0.0 **** 0.06
22608 H 175.84896043261477 123.53017624441026 18.810761107526474 H 0.0 **** 0.06
22609 H 176.4504708195815 122.27962202335465 17.69611772162915 H 0.0 **** 0.06
22610 H 174.775782124252 122.86616531626112 17.55432831734322 H 0.0 **** 0.06
22611 C 168.16879945651627 26.495357942330344 76.88971299181672 C 0.0 **** -0.24
22612 H 168.08210701039872 27.219034143758392 77.70019671016273 H 0.0 **** 0.06
22613 H 168.09959389277458 25.48585030466063 77.29523069414502 H 0.0 **** 0.06
22614 H 169.12959567226625 26.62227436594594 76.3914264044891 H 0.0 **** 0.06
22615 H 167.36318959293337 26.65497256383253 76.17193403073412 H 0.0 **** 0.06
22616 C 196.2756300615976 78.66114566802207 165.8394417049807 C 0.0 **** -0.24
22617 H 196.38833267648633 79.71445942211233 165.58296961082794 H 0.0 **** 0.06
22618 H 195.2720258636798 78.48627912098351 166.22762593353005 H 0.0 **** 0.06
22619 H 197.01104460857346 78.39088119613001 166.59624300634468 H 0.0 **** 0.06
22620 H 196.4316157028175 78.05169653341915 164.9479037257634 H 0.0 **** 0.06
22621 C 118.0560141901887 194.4344350723566 104.48786812515323 C 0.0 **** -0.24
22622 H 117.48418530343565 194.13236919594948 103.61081932448735 H 0.0 **** 0.06
22623 H 118.26150347954112 193.55992105301476 105.10614806945773 H 0.0 **** 0.06
22624 H 117.48216184808871 195.1604582919488 105.06333788557674 H 0.0 **** 0.06
22625 H 118.99631177089833 194.8846693857352 104.1702265065802 H 0.0 **** 0.06
22626 C 95.49070102521307 2.387416564087893 181.09704843837702 C 0.0 **** -0.24
22627 H 96.01054944246289 3.2099021053969636 181.58909910210502 H 0.0 **** 0.06
22628 H 96.11688005573251 1.4956942532638422 181.1223628668536 H 0.0 **** 0.06
22629 H 95.28332795204437 2.6577132737071167 180.06150037740764 H 0.0 **** 0.06
22630 H 94.55236819019757 2.1887319733796033 181.61573584469338 H 0.0 **** 0.06
22631 C 196.04252971860691 39.67584760816504 129.40219712103578 C 0.0 **** -0.24
22632 H 196.62379081579996 40.03383228144634 130.2523078232182 H 0.0 **** 0.06
22633 H 195.07418297795692 39.316307633181395 129.75018889930266 H 0.0 **** 0.06
22634 H 196.57786240937162 38.8626052292461 128.91241817117276 H 0.0 **** 0.06
22635 H 195.89410443112496 40.491680375093296 128.6948206226616 H 0.0 **** 0.06
22636 C 7.213020563112146 121.58840442091557 66.59941745370952 C 0.0 **** -0.24
22637 H 8.122728302833636 121.9023321611354 67.11080368195476 H 0.0 **** 0.06
22638 H 7.463714183233883 120.86198027158073 65.82565045303028 H 0.0 **** 0.06
22639 H 6.735329614438257 122.45471303918549 66.14238965811822 H 0.0 **** 0.06
22640 H 6.530897423210661 121.13399419347652 67.31768693006885 H 0.0 **** 0.06
22641 C 168.4020020478272 2.621060096804271 48.099590891821094 C 0.0 **** -0.24
22642 H 167.84260387480188 1.7006155958048907 48.26894939497794 H 0.0 **** 0.06
22643 H 169.46908101563344 2.401558241143263 48.09933234102752 H 0.0 **** 0.06
22644 H 168.17624726538196 3.333870154144435 48.89356778827437 H 0.0 **** 0.06
22645 H 168.1175953126517 3.046614500377146 47.13710040005179 H 0.0 **** 0.06
22646 C 22.52247408275207 114.95678418631314 35.78992188885974 C 0.0 **** -0.24
22647 H 22.649311978526185 115.29041419401665 34.75996370969179 H 0.0 **** 0.06
22648 H 21.46008189816689 114.93019655486432 36.03436339241651 H 0.0 **** 0.06
22649 H 23.032570034221038 115.64765147853575 36.46001229536671 H 0.0 **** 0.06
22650 H 22.948231449903545 113.95937403188884 35.90405931735404 H 0.0 **** 0.06
22651 C 7.80799945422649 180.47547210498732 69.36986196158348 C 0.0 **** -0.24
22652 H 6.7955993349831445 180.09142178052548 69.49498202073944 H 0.0 **** 0.06
22653 H 8.355068766957132 179.8365134857139 68.67530687203923 H 0.0 **** 0.06
22654 H 8.314897038469596 180.48089608306847 70.33518062258933 H 0.0 **** 0.06
22655 H 7.766360075311027 181.48989785063424 68.97571451616092 H 0.0 **** 0.06
22656 C 112.2745788866074 98.50447071420103 118.39848400365796 C 0.0 **** -0.24
22657 H 112.71383989137075 99.49390782621856 118.27296251339749 H 0.0 **** 0.06
22658 H 111.18947253086941 98.59323977005928 118.45048335406057 H 0.0 **** 0.06
22659 H 112.6468029431091 98.05608075295805 119.32028951638102 H 0.0 **** 0.06
22660 H 112.54845213210228 97.875580520189 117.55245432797932 H 0.0 **** 0.06
22661 C 53.50785510704634 101.21341840019821 106.40551316825437 C 0.0 **** -0.24
22662 H 54.233703169852674 100.44487880603481 106.14248629934752 H 0.0 **** 0.06
22663 H 53.63252858354343 101.48775335923565 107.45382160213342 H 0.0 **** 0.06
22664 H 52.49953779895918 100.8302766055265 106.24786400339943 H 0.0 **** 0.06
22665 H 53.665302861105005 102.09175698778458 105.78009315109989 H 0.0 **** 0.06
22666 C 59.92506881692691 87.41328416080307 65.84893327609541 C 0.0 **** -0.24
22667 H 60.00645221837061 87.99499476626076 66.76734233751176 H 0.0 **** 0.06
22668 H 59.59179819851954 88.06139727912986 65.03769114975307 H 0.0 **** 0.06
22669 H 59.20560638817517 86.60737237361133 65.99122407451591 H 0.0 **** 0.06
22670 H 60.89925810759837 86.9909887214335 65.6006260262609 H 0.0 **** 0.06
22671 C 173.93639992664842 97.88598013050773 126.609022196556 C 0.0 **** -0.24
22672 H 174.56438852220964 96.99607525711224 126.57145473663545 H 0.0 **** 0.06
22673 H 172.92305440438406 97.62949888869434 126.29776998644846 H 0.0 **** 0.06
22674 H 174.34159272721143 98.64506648734442 125.93858471401603 H 0.0 **** 0.06
22675 H 173.91610941764495 98.27391677374703 127.62710133053929 H 0.0 **** 0.06
22676 C 192.03143034943506 172.10909888494234 179.3038763574345 C 0.0 **** -0.24
22677 H 192.38259369335663 172.71597555695982 180.13905341382548 H 0.0 **** 0.06
22678 H 192.45415826978984 172.49120435421008 178.37426987365953 H 0.0 **** 0.06
22679 H 190.94363085336676 172.15603835472606 179.2540705096305 H 0.0 **** 0.06
22680 H 192.34490441521456 171.0755810635408 179.44829445715396 H 0.0 **** 0.06
22681 C 33.2155356054011 49.76835030316792 65.56920952676035 C 0.0 **** -0.24
22682 H 32.93125305647618 49.99865359185898 66.59531794247488 H 0.0 **** 0.06
22683 H 33.93058328808269 50.51067124524225 65.2147957723214 H 0.0 **** 0.06
22684 H 32.32941704178165 49.78361709332685 64.93397294303304 H 0.0 **** 0.06
22685 H 33.670491280529404 48.77808103571293 65.53232032937768 H 0.0 **** 0.06
22686 C 187.97669409135295 71.91170365257561 191.25328669642926 C 0.0 **** -0.24
22687 H 187.6592692895867 71.56037074100345 192.23475567160844 H 0.0 **** 0.06
22688 H 188.96371137451484 71.5096047700861 191.0255674701808 H 0.0 **** 0.06
22689 H 188.01940493449735 73.00034995820953 191.25410099993982 H 0.0 **** 0.06
22690 H 187.26387597409905 71.57647103445747 190.49957978005142 H 0.0 **** 0.06
22691 C 10.159830636983173 2.798548217410932 82.44370719149117 C 0.0 **** -0.24
22692 H 10.366091371902911 2.1997076933873174 83.33127591349674 H 0.0 **** 0.06
22693 H 9.688318758616873 2.172910715118597 81.68575208092426 H 0.0 **** 0.06
22694 H 11.093407725376153 3.2018020993346212 82.05294411421508 H 0.0 **** 0.06
22695 H 9.491047033039592 3.617621975556503 82.70689787798861 H 0.0 **** 0.06
22696 C 186.41984632034766 72.79594785443943 87.43919629131904 C 0.0 **** -0.24
22697 H 185.97118588237853 72.90527044933802 88.4271776125264 H 0.0 **** 0.06
22698 H 186.07088329723794 73.60018337730486 86.79065813691602 H 0.0 **** 0.06
22699 H 186.13056776741297 71.83472632157014 87.01376500767532 H 0.0 **** 0.06
22700 H 187.50539512767773 72.84340541854246 87.52554007692248 H 0.0 **** 0.06
22701 C 42.574582042775376 185.86401643334548 177.17670560620348 C 0.0 **** -0.24
22702 H 42.878305012722535 186.2336651903221 176.19724461202082 H 0.0 **** 0.06
22703 H 42.04178593493663 186.65024212773923 177.71207198439677 H 0.0 **** 0.06
22704 H 43.458273898762315 185.57181995817558 177.74422795089137 H 0.0 **** 0.06
22705 H 41.92031023669682 185.00146445526008 177.05137738062754 H 0.0 **** 0.06
22706 C 152.25879162684157 183.1139478146635 35.56251968837137 C 0.0 **** -0.24
22707 H 152.87725514525061 183.45559316969621 34.73306927348335 H 0.0 **** 0.06
22708 H 152.84517400740359 182.45817185045996 36.205979296334135 H 0.0 **** 0.06
22709 H 151.3980024611074 182.5694288639458 35.173838821743914 H 0.0 **** 0.06
22710 H 151.91467445979322 183.97483262511673 36.13718083806003 H 0.0 **** 0.06
22711 C 46.68481326276455 6.663944972431466 140.6128249527555 C 0.0 **** -0.24
22712 H 47.066710224052855 5.946721213999837 141.33946411839318 H 0.0 **** 0.06
22713 H 47.510712884381604 7.255124532665292 140.21653183297303 H 0.0 **** 0.06
22714 H 45.96463625262783 7.323216592319909 141.0983357222958 H 0.0 **** 0.06
22715 H 46.1966488261984 6.1297213960273496 139.79781125209848 H 0.0 **** 0.06
22716 C 155.45474721398745 194.131946141139 46.51341652300613 C 0.0 **** -0.24
22717 H 156.40980060620134 194.6515436186492 46.4422115951067 H 0.0 **** 0.06
22718 H 154.67142225025611 194.7514595571143 46.076873503380284 H 0.0 **** 0.06
22719 H 155.2239629073574 193.93748216713584 47.56063667240136 H 0.0 **** 0.06
22720 H 155.5145204288051 193.18641268410514 45.97310794651639 H 0.0 **** 0.06
22721 C 184.46648841905608 196.81120727850737 17.009601749648027 C 0.0 **** -0.24
22722 H 185.19712031699453 197.55992281897204 16.70322982703857 H 0.0 **** 0.06
22723 H 183.63274715365867 197.301164198751 17.51252957883375 H 0.0 **** 0.06
22724 H 184.93650248925775 196.10209460658328 17.69117909593794 H 0.0 **** 0.06
22725 H 184.10017275633584 196.28188021974609 16.13020401593124 H 0.0 **** 0.06
22726 C 43.633392863337946 160.67724558097996 102.18364457737027 C 0.0 **** -0.24
22727 H 42.81987547740488 161.3493454644283 101.9114996146177 H 0.0 **** 0.06
22728 H 44.39557745639401 161.23213782050547 102.73073591505229 H 0.0 **** 0.06
22729 H 44.070322189151895 160.25060246980428 101.28095354752824 H 0.0 **** 0.06
22730 H 43.24580507195569 159.87542589171977 102.81381250630929 H 0.0 **** 0.06
22731 C 132.1535299444604 64.49373744811294 181.8809083114945 C 0.0 **** -0.24
22732 H 132.06732077024972 64.37572393646593 182.9603472574665 H 0.0 **** 0.06
22733 H 133.16325866137078 64.22935084119271 181.56617456454273 H 0.0 **** 0.06
22734 H 131.94935769030397 65.53084503514373 181.61164772739122 H 0.0 **** 0.06
22735 H 131.4350455453723 63.84122277472255 181.38479496549823 H 0.0 **** 0.06
22736 C 114.25709641119317 198.0413511292513 138.65084666537797 C 0.0 **** -0.24
22737 H 115.17116591716686 197.75698560414048 139.17252556861473 H 0.0 **** 0.06
22738 H 113.43207666604462 198.08713744807383 139.3615383775276 H 0.0 **** 0.06
22739 H 114.0334062422466 197.30372936431542 137.88133806707248 H 0.0 **** 0.06
22740 H 114.39264982482774 199.01958910610693 138.187853739649 H 0.0 **** 0.06
22741 C 138.45242875641628 75.9619930748001 29.409804800518202 C 0.0 **** -0.24
22742 H 138.90042569286456 75.64193730113202 28.469761343403775 H 0.0 **** 0.06
22743 H 139.22757203230336 76.35789471757934 30.066095496597143 H 0.0 **** 0.06
22744 H 137.96939663894176 75.11102982418997 29.889740416334632 H 0.0 **** 0.06
22745 H 137.7111210279247 76.73770371915984 29.214079068875378 H 0.0 **** 0.06
22746 C 134.72213729191617 0.8457283892026624 169.26288439019604 C 0.0 **** -0.24
22747 H 133.7851505748439 0.3068618698279124 169.4064269499563 H 0.0 **** 0.06
22748 H 135.425063786829 0.5687847516121565 170.04902449360742 H 0.0 **** 0.06
22749 H 134.53430938361203 1.9190660520618508 169.30424428666942 H 0.0 **** 0.06
22750 H 135.1436492935216 0.588422222880979 168.29094207642197 H 0.0 **** 0.06
22751 C 82.13738705288776 0.5701927996564109 8.984066733386882 C 0.0 **** -0.24
22752 H 81.41114772846163 1.3365746629166324 9.255020543756132 H 0.0 **** 0.06
22753 H 82.48567902356268 0.7422255346153293 7.966125624048914 H 0.0 **** 0.06
22754 H 81.66775700612615 -0.4115155070411447 9.046188415441662 H 0.0 **** 0.06
22755 H 82.98270204525988 0.6124659587124484 9.67113240167889 H 0.0 **** 0.06
22756 C 171.67400310093976 72.52807569890021 116.97843670437956 C 0.0 **** -0.24
22757 H 171.09165694529443 71.71665031236994 116.54157461448884 H 0.0 **** 0.06
22758 H 171.09325929489515 73.45015801223904 116.94397608717907 H 0.0 **** 0.06
22759 H 172.5965139974637 72.65745343279832 116.41234154203056 H 0.0 **** 0.06
22760 H 171.91317836994972 72.28693064183899 118.0141822981283 H 0.0 **** 0.06
22761 C 182.64680905766534 5.924935406746869 11.19967565302327 C 0.0 **** -0.24
22762 H 181.80808348927656 6.558378785684084 11.487475195737183 H 0.0 **** 0.06
22763 H 182.58115696902632 4.974063851251742 11.729053385489053 H 0.0 **** 0.06
22764 H 183.5821398079259 6.421000128564856 11.457932988466382 H 0.0 **** 0.06
22765 H 182.61526673647185 5.747045596029238 10.124549619052573 H 0.0 **** 0.06
22766 C 43.33529653714959 16.8801113445558 165.65963018872296 C 0.0 **** -0.24
22767 H 42.83487437539753 16.103427410234303 166.23717965806554 H 0.0 **** 0.06
22768 H 42.98375724065707 16.849480209534832 164.62819936474006 H 0.0 **** 0.06
22769 H 44.41200991158141 16.71260739618525 165.68239890184012 H 0.0 **** 0.06
22770 H 43.110391037502296 17.855779056903586 166.09186362138246 H 0.0 **** 0.06
22771 C 125.7469926478158 170.7128375961609 63.89249011718192 C 0.0 **** -0.24
22772 H 125.98140859860075 169.95815429153564 64.64222135001421 H 0.0 **** 0.06
22773 H 124.688277370413 170.65520939176923 63.636779996387716 H 0.0 **** 0.06
22774 H 126.34592948298834 170.5358761882881 62.999373102894964 H 0.0 **** 0.06
22775 H 125.9720465369337 171.70251243817484 64.29072390434861 H 0.0 **** 0.06
22776 C 55.604006800494005 134.42621881812966 109.53396479573513 C 0.0 **** -0.24
22777 H 56.64850139950133 134.45271715027133 109.22229899940712 H 0.0 **** 0.06
22778 H 55.24099423066954 135.44449208370122 109.67240289412254 H 0.0 **** 0.06
22779 H 55.518715673002575 133.87809501229725 110.47243824066135 H 0.0 **** 0.06
22780 H 55.00923820226406 133.92863574910888 108.76766909827393 H 0.0 **** 0.06
22781 C 106.62992683003995 19.74228549513353 152.43515358400845 C 0.0 **** -0.24
22782 H 106.78644832333498 18.92094424864274 151.7362650025778 H 0.0 **** 0.06
22783 H 107.58605869662608 20.218586146503526 152.65514052579735 H 0.0 **** 0.06
22784 H 106.19410573594183 19.35787726443658 153.35617525737018 H 0.0 **** 0.06
22785 H 105.95426461312843 20.472461899331293 151.99036862817155 H 0.0 **** 0.06
22786 C 37.75889764640965 80.04247301076973 107.48322073900397 C 0.0 **** -0.24
22787 H 37.610601256806916 80.2616583562129 108.5408268365212 H 0.0 **** 0.06
22788 H 37.553953556138964 80.93766107374668 106.89571929801082 H 0.0 **** 0.06
22789 H 37.08251375516693 79.2448672289415 107.17925941464125 H 0.0 **** 0.06
22790 H 38.789866741020376 79.72822881272151 107.31875796177854 H 0.0 **** 0.06
22791 C 190.50657907492055 59.49141183568749 83.55812485155184 C 0.0 **** -0.24
22792 H 191.33494039148394 60.161529555255626 83.3264667611574 H 0.0 **** 0.06
22793 H 189.8440603698304 59.96891980547606 84.28044043294267 H 0.0 **** 0.06
22794 H 190.89764860619724 58.564343521938895 83.97925628132975 H 0.0 **** 0.06
22795 H 189.95259538078656 59.27023399378545 82.64653443728253 H 0.0 **** 0.06
22796 C 91.03503830692571 93.55769041651595 31.82893630526496 C 0.0 **** -0.24
22797 H 91.88983104319291 94.12516224619847 32.19520090318919 H 0.0 **** 0.06
22798 H 91.38470421735477 92.64319848299047 31.349730776246005 H 0.0 **** 0.06
22799 H 90.48312672351034 94.15862194252645 31.106586269082555 H 0.0 **** 0.06
22800 H 90.38249124364503 93.30377899434836 32.66422727254211 H 0.0 **** 0.06
22801 C 174.8379274175226 18.54820065702353 81.20178828519093 C 0.0 **** -0.24
22802 H 174.19867089808838 18.332384536892803 82.05799105991795 H 0.0 **** 0.06
22803 H 175.88246328485099 18.50580028685286 81.50977157087104 H 0.0 **** 0.06
22804 H 174.61030969046968 19.544551802263058 80.82215390866955 H 0.0 **** 0.06
22805 H 174.65837138993552 17.811134244403092 80.41953231417901 H 0.0 **** 0.06
22806 C 57.54614576385728 80.39634758360611 187.41013629257185 C 0.0 **** -0.24
22807 H 57.08459117611369 80.73661793412467 188.3378782632241 H 0.0 **** 0.06
22808 H 58.43755446927494 80.99030090033963 187.20918442610497 H 0.0 **** 0.06
22809 H 56.838753110803424 80.51350416870409 186.58911945145746 H 0.0 **** 0.06
22810 H 57.822519253590485 79.34643378414822 187.50558462380343 H 0.0 **** 0.06
22811 C 195.02636505711624 115.22088312989399 78.10493314605588 C 0.0 **** -0.24
22812 H 195.676776773646 114.46404777239923 78.54283782978459 H 0.0 **** 0.06
22813 H 194.87739504508002 115.00333708042453 77.04772535434692 H 0.0 **** 0.06
22814 H 195.48934406452292 116.2024541048593 78.21316702866103 H 0.0 **** 0.06
22815 H 194.06472598211624 115.21401093839145 78.61708031524384 H 0.0 **** 0.06
22816 C 56.79549588102964 49.81957979016397 144.16825740783503 C 0.0 **** -0.24
22817 H 56.09932499187113 49.09783982146644 143.74120800862667 H 0.0 **** 0.06
22818 H 56.453873798352504 50.109500336067896 145.16215333927877 H 0.0 **** 0.06
22819 H 56.84145254358691 50.70156216501982 143.52933584722393 H 0.0 **** 0.06
22820 H 57.78568730208866 49.37080150877455 144.2397183206212 H 0.0 **** 0.06
22821 C 85.25045515315549 185.7662766520586 106.364426429659 C 0.0 **** -0.24
22822 H 85.20259708982672 186.12178243050386 107.39310320228844 H 0.0 **** 0.06
22823 H 84.88495756429128 184.74083246181758 106.31684080004106 H 0.0 **** 0.06
22824 H 86.28205212232251 185.80228391512418 106.01560149886222 H 0.0 **** 0.06
22825 H 84.63177675587926 186.4031531116389 105.73179374867968 H 0.0 **** 0.06
22826 C 137.72550595604238 51.492767156147096 13.59550057105676 C 0.0 **** -0.24
22827 H 137.42233610734127 51.177029732561394 12.596576332842346 H 0.0 **** 0.06
22828 H 138.38578338515327 50.74206318560263 14.029215843302467 H 0.0 **** 0.06
22829 H 136.84144683439314 51.60703293855103 14.223178429057327 H 0.0 **** 0.06
22830 H 138.25046784979762 52.44589280275932 13.530008594633216 H 0.0 **** 0.06
22831 C 10.355323985091466 32.08671230769397 30.028914410613197 C 0.0 **** -0.24
22832 H 9.310641728960718 31.898997722573014 29.78072516303409 H 0.0 **** 0.06
22833 H 10.630175876462104 31.505846326399364 30.909587926320455 H 0.0 **** 0.06
22834 H 10.493728569396175 33.14833972274424 30.234530784725678 H 0.0 **** 0.06
22835 H 10.985736050273026 31.7945280579884 29.189016990001562 H 0.0 **** 0.06
22836 C 72.61865943411883 97.58854820931214 118.28924754981813 C 0.0 **** -0.24
22837 H 72.42555704386079 97.44497196568187 117.22616476362609 H 0.0 **** 0.06
22838 H 73.32548824645446 98.40863909197549 118.42191515070056 H 0.0 **** 0.06
22839 H 73.03997446243918 96.67422953949793 118.70726393930511 H 0.0 **** 0.06
22840 H 71.68531492022292 97.82664428481701 118.79918965865676 H 0.0 **** 0.06
22841 C 39.300833551746166 95.42784578634786 39.59992612137718 C 0.0 **** -0.24
22842 H 39.4750236669347 96.48393175128723 39.392328108595905 H 0.0 **** 0.06
22843 H 39.601517472787975 94.83414602224244 38.73640978582988 H 0.0 **** 0.06
22844 H 38.241629775155246 95.2668372936696 39.80008181796332 H 0.0 **** 0.06
22845 H 39.885234454564 95.12729895204941 40.46936666594688 H 0.0 **** 0.06
22846 C 98.48553913884373 24.674429737385793 190.58599234201955 C 0.0 **** -0.24
22847 H 98.6376639543636 25.09822270776006 191.5790604458884 H 0.0 **** 0.06
22848 H 99.36363910435 24.869108378696467 189.96978103741156 H 0.0 **** 0.06
22849 H 97.60932049227532 25.131049275411854 190.12643260786356 H 0.0 **** 0.06
22850 H 98.331942093757 23.598315320333953 190.67088290109095 H 0.0 **** 0.06
22851 C 20.9702474854372 71.1216270895215 18.65488067698169 C 0.0 **** -0.24
22852 H 20.412769433387666 71.35106748423902 19.563328816431493 H 0.0 **** 0.06
22853 H 21.27550563641097 70.0751759812278 18.671258417346166 H 0.0 **** 0.06
22854 H 21.853574732456423 71.7574944728904 18.600032550509013 H 0.0 **** 0.06
22855 H 20.33747423279371 71.30254932292355 17.786378043687023 H 0.0 **** 0.06
22856 C 161.95501330207645 173.1901752062501 181.38484244268653 C 0.0 **** -0.24
22857 H 160.88148397321254 173.3547983078177 181.48163973010054 H 0.0 **** 0.06
22858 H 162.24363929672302 173.28637424053596 180.33844268609928 H 0.0 **** 0.06
22859 H 162.20122254558873 172.18933754718634 181.73971097275654 H 0.0 **** 0.06
22860 H 162.4906702573474 173.9291681894111 181.98122880462353 H 0.0 **** 0.06
22861 C 127.43154993074342 31.336258350390253 37.387065974052234 C 0.0 **** -0.24
22862 H 126.86225993062357 31.727186369502462 38.23038908065652 H 0.0 **** 0.06
22863 H 127.26394485629498 30.261820918122268 37.302950235346884 H 0.0 **** 0.06
22864 H 128.49324612256945 31.52809416603577 37.54455538186812 H 0.0 **** 0.06
22865 H 127.10576171571418 31.827872318632032 36.47051787233218 H 0.0 **** 0.06
22866 C 82.72867611739977 41.646560751056214 73.8221629831512 C 0.0 **** -0.24
22867 H 82.30897513339696 40.97257343324971 74.56980587208238 H 0.0 **** 0.06
22868 H 83.73685071794418 41.9361034016725 74.11927191899491 H 0.0 **** 0.06
22869 H 82.10219005468511 42.53549315085644 73.74323198968722 H 0.0 **** 0.06
22870 H 82.76480622480761 41.140900675258436 72.85738260459021 H 0.0 **** 0.06
22871 C 51.18864227120875 27.776843432721478 123.61550203493834 C 0.0 **** -0.24
22872 H 51.9313260531319 27.324631687563823 122.9581969152031 H 0.0 **** 0.06
22873 H 50.81133518587194 27.02513661133102 124.30901764870279 H 0.0 **** 0.06
22874 H 50.36452291725979 28.166686317418282 123.01716640938596 H 0.0 **** 0.06
22875 H 51.64699720823012 28.591005744737856 124.17594127411564 H 0.0 **** 0.06
22876 C 67.83217765795666 124.54178628711804 55.37713687239771 C 0.0 **** -0.24
22877 H 67.68627847003499 123.4699760816203 55.24250777242854 H 0.0 **** 0.06
22878 H 68.44126017560434 124.7154621047066 56.26460005085029 H 0.0 **** 0.06
22879 H 66.86479572168449 125.02783851065459 55.499399231152594 H 0.0 **** 0.06
22880 H 68.33808189787295 124.9515689987976 54.502936831650715 H 0.0 **** 0.06
22881 C 113.52911754812587 91.49206155911205 175.16266267884643 C 0.0 **** -0.24
22882 H 114.61848093305969 91.50955181446815 175.13822544596988 H 0.0 **** 0.06
22883 H 113.16994291122617 90.56366571169235 174.71932262934357 H 0.0 **** 0.06
22884 H 113.1400191584664 92.33970139819496 174.59825516990875 H 0.0 **** 0.06
22885 H 113.18760637349013 91.55689036614038 176.1966859220716 H 0.0 **** 0.06
22886 C 164.05768981152525 77.3693794021632 16.371978838214645 C 0.0 **** -0.24
22887 H 163.63438900926155 76.91291827988795 15.477673331054248 H 0.0 **** 0.06
22888 H 165.09787494980316 77.63553719837863 16.186340560036953 H 0.0 **** 0.06
22889 H 164.0043220643181 76.66247849827427 17.2003589999903 H 0.0 **** 0.06
22890 H 163.49203842037275 78.26724394990413 16.623624360758328 H 0.0 **** 0.06
22891 C 194.44091038369382 139.36750143545828 27.119400876257203 C 0.0 **** -0.24
22892 H 193.92376934438636 139.58179031034814 28.055063807769756 H 0.0 **** 0.06
22893 H 195.48602500428905 139.66522255449755 27.20621824045344 H 0.0 **** 0.06
22894 H 193.96977669808234 139.92333253517316 26.308900095720446 H 0.0 **** 0.06
22895 H 194.38348016991102 138.29987863320662 26.908687819388717 H 0.0 **** 0.06
22896 C 26.55255993322254 45.967968996617174 56.534100192762295 C 0.0 **** -0.24
22897 H 25.839368407968067 45.78018142395257 55.731580813079944 H 0.0 **** 0.06
22898 H 26.034448288257153 46.41650435696033 57.38264545951233 H 0.0 **** 0.06
22899 H 27.32669843380134 46.64897278341448 56.1808607543624 H 0.0 **** 0.06
22900 H 27.008351077869918 45.027744214958716 56.84219830097082 H 0.0 **** 0.06
22901 C 136.95652945500296 0.6496042115050216 65.31047228143422 C 0.0 **** -0.24
22902 H 137.86535106320804 0.14564793794201591 64.98312228650775 H 0.0 **** 0.06
22903 H 137.16403145156343 1.7085307839990378 65.4667673009929 H 0.0 **** 0.06
22904 H 136.6105627790811 0.20543457901587203 66.243548949483 H 0.0 **** 0.06
22905 H 136.1854988488365 0.5387848988066537 64.54771178377314 H 0.0 **** 0.06
22906 C 15.746260309046875 11.123834236045184 87.34135098688344 C 0.0 **** -0.24
22907 H 15.18007323053638 10.56577666356835 86.59564955903468 H 0.0 **** 0.06
22908 H 15.421044526060143 10.830380750115502 88.33933416459212 H 0.0 **** 0.06
22909 H 15.57694811054813 12.190941608830315 87.201995726224 H 0.0 **** 0.06
22910 H 16.808500732207676 10.907280677601769 87.22709895662396 H 0.0 **** 0.06
22911 C 7.325038075507386 64.85441013476509 13.862490530177439 C 0.0 **** -0.24
22912 H 7.413503662002192 63.767731228628236 13.866672699165093 H 0.0 **** 0.06
22913 H 6.335804336298729 65.13622903645086 13.501733826502743 H 0.0 **** 0.06
22914 H 8.086224193218904 65.2790563117473 13.208210013402038 H 0.0 **** 0.06
22915 H 7.464428427196843 65.23388392178185 14.875446939705625 H 0.0 **** 0.06
22916 C 177.6009140677479 194.66559281867552 102.19515967678666 C 0.0 **** -0.24
22917 H 178.0613114323708 194.603959561672 101.20875443307284 H 0.0 **** 0.06
22918 H 178.35974800779536 194.91736496873622 102.93526946187018 H 0.0 **** 0.06
22919 H 177.15137489850463 193.70524983812976 102.4457341295689 H 0.0 **** 0.06
22920 H 176.8302737240964 195.43651655860805 102.18762749021437 H 0.0 **** 0.06
22921 C 22.94939273909921 89.50409351514605 71.58299404819468 C 0.0 **** -0.24
22922 H 23.6493603795347 89.7434376370827 70.78236281024488 H 0.0 **** 0.06
22923 H 22.246132245319586 90.32767406184746 71.70795184654907 H 0.0 **** 0.06
22924 H 23.49906073548783 89.35172359847701 72.51174061248014 H 0.0 **** 0.06
22925 H 22.405086507284352 88.59566043912844 71.32945370617688 H 0.0 **** 0.06
22926 C 174.10556410094063 165.1200311621748 42.90441465829788 C 0.0 **** -0.24
22927 H 174.10380478069996 164.56166428012534 41.968493719331335 H 0.0 **** 0.06
22928 H 174.88440523261758 164.72875042217382 43.55917993161094 H 0.0 **** 0.06
22929 H 173.1354566584325 165.01738551827063 43.39078396882175 H 0.0 **** 0.06
22930 H 174.29951954823576 166.17242299237813 42.6974330164405 H 0.0 **** 0.06
22931 C 100.5994873279997 157.18663608566442 94.23396244254008 C 0.0 **** -0.24
22932 H 99.95645825335984 156.36568048376068 93.91821385480239 H 0.0 **** 0.06
22933 H 101.57496167402596 156.79402358347318 94.52207339110501 H 0.0 **** 0.06
22934 H 100.14683787907819 157.69541684819805 95.08544016315312 H 0.0 **** 0.06
22935 H 100.72054298887684 157.89173597072835 93.41159794828027 H 0.0 **** 0.06
22936 C 53.70559693960092 111.96017336589884 49.2766921188945 C 0.0 **** -0.24
22937 H 54.29902827844501 112.24229317254014 48.40758779757658 H 0.0 **** 0.06
22938 H 52.87164432855599 111.33291828529974 48.959623012781876 H 0.0 **** 0.06
22939 H 53.32181903764376 112.85903071949616 49.76104498560123 H 0.0 **** 0.06
22940 H 54.32949916796406 111.40826754792622 49.97925004930849 H 0.0 **** 0.06
22941 C 48.62337730419286 124.52590837883199 98.66634040222016 C 0.0 **** -0.24
22942 H 47.77113269806101 125.06163947606905 98.24783949052011 H 0.0 **** 0.06
22943 H 49.546363665657196 124.93872920197464 98.26002671548929 H 0.0 **** 0.06
22944 H 48.551721491094284 123.47008593959524 98.40657495447988 H 0.0 **** 0.06
22945 H 48.623159866948015 124.63459241574074 99.75177002018063 H 0.0 **** 0.06
22946 C 13.049951495589234 156.21287232626838 90.88199685620737 C 0.0 **** -0.24
22947 H 12.149292937389767 155.79022052844238 90.43685497000757 H 0.0 **** 0.06
22948 H 13.749523053325987 156.48943427811443 90.09370897284302 H 0.0 **** 0.06
22949 H 13.513293130156057 155.47332879007024 91.5362205204539 H 0.0 **** 0.06
22950 H 12.786916778046468 157.0969047845456 91.46211323563708 H 0.0 **** 0.06
22951 C 178.90702216952866 22.752349661480736 31.823055947278576 C 0.0 **** -0.24
22952 H 178.24568970463793 22.763564505986878 30.956254184331726 H 0.0 **** 0.06
22953 H 179.157064237906 21.721496853193756 32.075615153539204 H 0.0 **** 0.06
22954 H 178.40591252639393 23.223599248038482 32.66791073392244 H 0.0 **** 0.06
22955 H 179.81948977994952 23.300979960038475 31.58962643473093 H 0.0 **** 0.06
22956 C 120.43828813350675 165.31927218398573 92.0239182867347 C 0.0 **** -0.24
22957 H 119.68638151714697 165.34298510524303 91.23525244112645 H 0.0 **** 0.06
22958 H 120.23595262009471 166.11386385931633 92.74185357919302 H 0.0 **** 0.06
22959 H 121.42624878459424 165.46625165692706 91.58713976600049 H 0.0 **** 0.06
22960 H 120.40353239600864 164.354917801939 92.52941241807005 H 0.0 **** 0.06
22961 C 125.70273691769 175.57919746789958 113.37566897889553 C 0.0 **** -0.24
22962 H 125.07284808288676 174.77070092768918 113.74619977967177 H 0.0 **** 0.06
22963 H 126.43283476301667 175.1786978613511 112.67188499368206 H 0.0 **** 0.06
22964 H 126.2224920630747 176.04699755807644 114.21197236459909 H 0.0 **** 0.06
22965 H 125.08225889768607 176.32250860263252 112.8737423958056 H 0.0 **** 0.06
22966 C 54.75115210059067 173.10196492338565 141.1556970925419 C 0.0 **** -0.24
22967 H 55.1419050034408 172.7233962832683 142.1005963738653 H 0.0 **** 0.06
22968 H 54.667438135785005 172.28167160313922 140.44178774632962 H 0.0 **** 0.06
22969 H 55.427385033674625 173.86023718767902 140.7613890047915 H 0.0 **** 0.06
22970 H 53.76824016506379 173.54225835748446 141.32068339986756 H 0.0 **** 0.06
22971 C 35.343241829769 132.75301925985264 125.55362699721962 C 0.0 **** -0.24
22972 H 36.19671789399473 133.0106704155648 126.17973173623136 H 0.0 **** 0.06
22973 H 35.518370661518986 133.105104091994 124.53709916061896 H 0.0 **** 0.06
22974 H 34.444959392058024 133.2246625989635 125.95329426697984 H 0.0 **** 0.06
22975 H 35.21143012786547 131.6709069878499 125.54618423412359 H 0.0 **** 0.06
22976 C 98.42334548195197 8.290275923769372 9.736595406539209 C 0.0 **** -0.24
22977 H 98.23516227788005 9.343234999629779 9.527184456136098 H 0.0 **** 0.06
22978 H 98.67951636416814 8.169272335030747 10.78974796951971 H 0.0 **** 0.06
22979 H 99.2497617701809 7.939782975038021 9.118505212305962 H 0.0 **** 0.06
22980 H 97.52917924674676 7.709669773455239 9.511402360282943 H 0.0 **** 0.06
22981 C 117.07061371601918 56.933448972479354 175.70428204868148 C 0.0 **** -0.24
22982 H 117.48617942809918 57.26209833268196 174.7509539569995 H 0.0 **** 0.06
22983 H 116.80145135986982 57.804038398046174 176.30247964386993 H 0.0 **** 0.06
22984 H 117.8144835147109 56.341110257284925 176.2381240431203 H 0.0 **** 0.06
22985 H 116.18333780201877 56.32617042111991 175.52420177802503 H 0.0 **** 0.06
22986 C 184.56225392350075 75.59424362857163 157.58380746108202 C 0.0 **** -0.24
22987 H 184.32839504349425 75.0632395833926 156.66133502249374 H 0.0 **** 0.06
22988 H 185.62672622580698 75.8270801621494 157.60905712118102 H 0.0 **** 0.06
22989 H 184.306078901786 74.96705146884511 158.43902210359357 H 0.0 **** 0.06
22990 H 183.98635835356367 76.51929724126882 157.62670049843507 H 0.0 **** 0.06
22991 C 49.7506302587862 34.21579184261208 58.397042772142754 C 0.0 **** -0.24
22992 H 48.72468166542586 34.056298576734946 58.06712454395745 H 0.0 **** 0.06
22993 H 49.79607792376768 35.10441301413783 59.027218637621644 H 0.0 **** 0.06
22994 H 50.39444987666201 34.35183880939624 57.52842191578412 H 0.0 **** 0.06
22995 H 50.08749770182794 33.34839146756684 58.96641228266665 H 0.0 **** 0.06
22996 C 7.7766643597078655 130.26592106598915 8.297943042869065 C 0.0 **** -0.24
22997 H 7.552005007857645 130.0483576275961 9.341616356554702 H 0.0 **** 0.06
22998 H 7.3679274662336525 129.4773587365468 7.666469150154846 H 0.0 **** 0.06
22999 H 8.857185218854 130.31770381251258 8.162296762594416 H 0.0 **** 0.06
23000 H 7.330011460632932 131.22158832462327 8.022401804125494 H 0.0 **** 0.06
23001 C 155.1273468410345 87.65411804272864 141.95376756062717 C 0.0 **** -0.24
23002 H 154.25076089419895 88.2749159254621 142.1433744814452 H 0.0 **** 0.06
23003 H 154.8341781799009 86.78223915190128 141.36797404449842 H 0.0 **** 0.06
23004 H 155.553584361221 87.32954077633704 142.90274218916565 H 0.0 **** 0.06
23005 H 155.868214866283 88.23132941393038 141.40022416361447 H 0.0 **** 0.06
23006 C 60.70961060581469 131.90645651146684 3.328164414393086 C 0.0 **** -0.24
23007 H 61.354900966813005 132.39037197763463 2.5950506085120963 H 0.0 **** 0.06
23008 H 60.340591590525364 132.64952630804834 4.034342793140958 H 0.0 **** 0.06
23009 H 61.27692432991435 131.14485524935435 3.863671977520184 H 0.0 **** 0.06
23010 H 59.86757483514755 131.43940364844207 2.8176391360464024 H 0.0 **** 0.06
23011 C 166.66516430675193 13.18761385910966 137.0478550391082 C 0.0 **** -0.24
23012 H 166.92725396899033 12.222243846292258 137.48123066952482 H 0.0 **** 0.06
23013 H 167.04656965106327 13.243298780028454 136.02778060196766 H 0.0 **** 0.06
23014 H 167.10511816789858 13.985837160755352 137.64515883945575 H 0.0 **** 0.06
23015 H 165.58063875351291 13.297274900708317 137.0364766370477 H 0.0 **** 0.06
23016 C 160.53612062429627 168.08607168897993 19.598001876919113 C 0.0 **** -0.24
23017 H 159.78003982672936 168.85234540024996 19.425426906540906 H 0.0 **** 0.06
23018 H 160.0670752794875 167.10259401327934 19.577174039546378 H 0.0 **** 0.06
23019 H 161.00016964675427 168.2471090878734 20.57073109398101 H 0.0 **** 0.06
23020 H 161.29592929987905 168.1443320956828 18.818759180467254 H 0.0 **** 0.06
23021 C 64.09071649250274 176.38822449319372 152.76770704014945 C 0.0 **** -0.24
23022 H 64.04955100248543 176.3203447501162 151.6803333979197 H 0.0 **** 0.06
23023 H 64.19104888447276 175.3885362714235 153.19093223158373 H 0.0 **** 0.06
23024 H 63.17590042666376 176.85080094447997 153.13767631855188 H 0.0 **** 0.06
23025 H 64.94873502245207 176.99466039822016 153.06133848022662 H 0.0 **** 0.06
23026 C 105.65519781113676 17.90306362353104 72.20025607237136 C 0.0 **** -0.24
23027 H 106.6397212000912 17.583416605946113 72.54112284007488 H 0.0 **** 0.06
23028 H 104.99705394658105 18.032139869632232 73.06027333241502 H 0.0 **** 0.06
23029 H 105.2392062788831 17.14751795924697 71.53338240534443 H 0.0 **** 0.06
23030 H 105.74480981899143 18.84918005929879 71.66624571165107 H 0.0 **** 0.06
23031 C 196.08472006717705 189.47501305367723 29.08500512286085 C 0.0 **** -0.24
23032 H 196.31899968463932 189.72734612280027 30.11918391060702 H 0.0 **** 0.06
23033 H 196.90089556710547 188.89273124352624 28.65857798237637 H 0.0 **** 0.06
23034 H 195.95257873379882 190.3913012243619 28.50897964183568 H 0.0 **** 0.06
23035 H 195.16492345095693 188.89122210701439 29.052725207922776 H 0.0 **** 0.06
23036 C 107.08304848115193 63.01341554836523 30.513683362834 C 0.0 **** -0.24
23037 H 106.0406349912889 63.04665280423663 30.827683434374364 H 0.0 **** 0.06
23038 H 107.63535265758762 63.81590307435364 31.001499440502357 H 0.0 **** 0.06
23039 H 107.14091147524812 63.13778927487998 29.431316613224368 H 0.0 **** 0.06
23040 H 107.51516204944042 62.05170946786431 30.791335976553967 H 0.0 **** 0.06
23041 C 160.8980812665367 90.40251454315273 78.20246666720762 C 0.0 **** -0.24
23042 H 161.17451464267197 89.4434940465261 78.64002117451363 H 0.0 **** 0.06
23043 H 160.26389816244017 90.94990071011921 78.90024805872855 H 0.0 **** 0.06
23044 H 160.35438066265618 90.23347147488289 77.27332686963217 H 0.0 **** 0.06
23045 H 161.79788774585194 90.98169756951137 77.99652494866189 H 0.0 **** 0.06
23046 C 192.7018148972449 113.27890038938716 46.90703647832582 C 0.0 **** -0.24
23047 H 192.90977595622985 113.49562666863153 47.95458437162793 H 0.0 **** 0.06
23048 H 192.63196697132534 112.20030872930315 46.76601881680092 H 0.0 **** 0.06
23049 H 193.50755876615267 113.67495598307212 46.28884276282437 H 0.0 **** 0.06
23050 H 191.76002992975955 113.74594690755396 46.619121031147785 H 0.0 **** 0.06
23051 C 104.26293420548265 114.85741361681835 89.45002328198703 C 0.0 **** -0.24
23052 H 104.06512351686519 115.10847587740761 90.49205128187444 H 0.0 **** 0.06
23053 H 105.34041633941243 114.80912381016446 89.28655135936799 H 0.0 **** 0.06
23054 H 103.83160536777189 115.62238160804213 88.8049968711195 H 0.0 **** 0.06
23055 H 103.81565544785838 113.89147360009036 89.21839804558596 H 0.0 **** 0.06
23056 C 132.3738893890502 49.38357098677051 122.14929977773332 C 0.0 **** -0.24
23057 H 132.07556616621457 50.426125406914224 122.25542799334431 H 0.0 **** 0.06
23058 H 131.67111687195472 48.86912258211014 121.4928629264291 H 0.0 **** 0.06
23059 H 132.37419464130193 48.90433580590678 123.12858944016901 H 0.0 **** 0.06
23060 H 133.37449163723625 49.333725034259416 121.7204359371992 H 0.0 **** 0.06
23061 C 161.10467741854094 100.46373852027455 192.81308350800396 C 0.0 **** -0.24
23062 H 161.01717021197265 100.02835374333006 191.81806076980604 H 0.0 **** 0.06
23063 H 161.93852853368162 101.16637320243075 192.82977269735414 H 0.0 **** 0.06
23064 H 161.28105712084084 99.6726331984043 193.54212140843003 H 0.0 **** 0.06
23065 H 160.1823257110089 100.98890896972864 193.06201526099306 H 0.0 **** 0.06
23066 C 55.063648592556405 167.03181876882553 141.49474568615562 C 0.0 **** -0.24
23067 H 55.73065316769245 166.7299895224398 142.30158870750623 H 0.0 **** 0.06
23068 H 55.243377078172216 166.40611726680038 140.62090246845514 H 0.0 **** 0.06
23069 H 55.25108271390906 168.07488395932057 141.23941424396446 H 0.0 **** 0.06
23070 H 54.02909967917506 166.9181409295048 141.81771559883703 H 0.0 **** 0.06
23071 C 93.8132121226104 174.03195782695013 134.1202022564416 C 0.0 **** -0.24
23072 H 94.41669057778927 174.01046772075512 133.21247177713812 H 0.0 **** 0.06
23073 H 94.16439914275094 174.83329634085572 134.77088494547814 H 0.0 **** 0.06
23074 H 93.90112193040139 173.07682271977237 134.6381216307622 H 0.0 **** 0.06
23075 H 92.76945776889741 174.20842341998969 133.85753619971862 H 0.0 **** 0.06
23076 C 96.77213839105897 195.62306334060168 125.98965379529966 C 0.0 **** -0.24
23077 H 97.00571229335188 194.56758658273392 126.12873910882576 H 0.0 **** 0.06
23078 H 97.69698677525878 196.1836961098567 125.8489765916978 H 0.0 **** 0.06
23079 H 96.24902598750188 195.99871081906315 126.86797095120457 H 0.0 **** 0.06
23080 H 96.13816596388529 195.741484635851 125.11035745022423 H 0.0 **** 0.06
23081 C 135.80799841105204 62.12677369143404 83.5721394126659 C 0.0 **** -0.24
23082 H 136.5634134208326 61.553964146189514 83.03376957596288 H 0.0 **** 0.06
23083 H 135.09837934677068 61.443778618320266 84.03877544782739 H 0.0 **** 0.06
23084 H 135.2808264893415 62.7780343890264 82.87384364087097 H 0.0 **** 0.06
23085 H 136.28984081201065 62.73213597085703 84.33932066516121 H 0.0 **** 0.06
23086 C 63.47245592495766 107.34380718152079 137.53908234100484 C 0.0 **** -0.24
23087 H 62.878266623225315 108.25785060279429 137.5249971097311 H 0.0 **** 0.06
23088 H 63.88337698451444 107.19316556041383 138.53733915482977 H 0.0 **** 0.06
23089 H 64.28619961906287 107.42960477091077 136.81978015758185 H 0.0 **** 0.06
23090 H 62.84141104329551 106.49585454916894 137.2745613518157 H 0.0 **** 0.06
23091 C 101.52541390945257 52.260545531487736 157.82351799963038 C 0.0 **** -0.24
23092 H 101.1401810782441 53.00972587998112 158.51535769073143 H 0.0 **** 0.06
23093 H 100.97232515926783 52.31546972916456 156.88539227844473 H 0.0 **** 0.06
23094 H 101.40659876789425 51.26818974575531 158.25915850654084 H 0.0 **** 0.06
23095 H 102.58186009340716 52.45038480125049 157.63412636332913 H 0.0 **** 0.06
23096 C 147.63687474891734 197.26760109500185 47.67749496542672 C 0.0 **** -0.24
23097 H 147.45900277973638 197.4795256406891 48.731178600913836 H 0.0 **** 0.06
23098 H 146.7223248507926 197.4451785762896 47.11146986967992 H 0.0 **** 0.06
23099 H 147.93913864417192 196.22626920901982 47.56275987735023 H 0.0 **** 0.06
23100 H 148.42797382435924 197.91915615277674 47.30476856783474 H 0.0 **** 0.06
23101 C 9.535113513610241 26.67359374013654 152.69327363641165 C 0.0 **** -0.24
23102 H 9.896339424197663 26.50571463419959 151.67880129889778 H 0.0 **** 0.06
23103 H 10.046952605290073 25.996009022146268 153.3773360581374 H 0.0 **** 0.06
23104 H 8.462314746647905 26.487083430159373 152.73198245081184 H 0.0 **** 0.06
23105 H 9.73550559737626 27.70453929697908 152.98426151380755 H 0.0 **** 0.06
23106 C 196.3306195932799 22.52071807539572 197.02086686294112 C 0.0 **** -0.24
23107 H 195.62380374874527 23.303424078371734 196.74215124441588 H 0.0 **** 0.06
23108 H 195.79394137814526 21.70253492361752 197.5017883944919 H 0.0 **** 0.06
23109 H 197.06754197917076 22.92803905705668 197.71253852036187 H 0.0 **** 0.06
23110 H 196.8349856404976 22.15206524735325 196.12838681430924 H 0.0 **** 0.06
23111 C 41.242010840806344 99.60239600452718 20.706258181619376 C 0.0 **** -0.24
23112 H 42.31387782394417 99.71612955150721 20.867892119898187 H 0.0 **** 0.06
23113 H 40.70899273111496 99.83170494758858 21.629565719318236 H 0.0 **** 0.06
23114 H 41.0261215182709 98.57690561220542 20.406313286277395 H 0.0 **** 0.06
23115 H 40.91835550874998 100.28600923603409 19.921659017170242 H 0.0 **** 0.06
23116 C 145.72488814205852 180.5992532746004 48.80181668785373 C 0.0 **** -0.24
23117 H 146.38194590267042 180.85944396715482 47.9717350094693 H 0.0 **** 0.06
23118 H 144.89051002563062 180.00443047364433 48.43261398212398 H 0.0 **** 0.06
23119 H 145.34524535179588 181.51059499565542 49.26482891463212 H 0.0 **** 0.06
23120 H 146.28368491834368 180.02308205821123 49.54017405564913 H 0.0 **** 0.06
23121 C 10.645339621761082 67.6916906125257 6.814624171725029 C 0.0 **** -0.24
23122 H 9.745020261483276 67.7334057423225 6.201441829977284 H 0.0 **** 0.06
23123 H 11.45221067051412 68.2243339183955 6.310436785767422 H 0.0 **** 0.06
23124 H 10.933986862176454 66.65164227472899 6.965825703368523 H 0.0 **** 0.06
23125 H 10.448934569794964 68.15892222917535 7.779711399910525 H 0.0 **** 0.06
23126 C 54.930611844912846 159.53665416707963 92.0689053143443 C 0.0 **** -0.24
23127 H 54.01633054292749 158.96297723958997 91.91792796598654 H 0.0 **** 0.06
23128 H 54.685364523377444 160.49808994562807 92.52098682714123 H 0.0 **** 0.06
23129 H 55.42033362872941 159.70055235289004 91.10914876425679 H 0.0 **** 0.06
23130 H 55.59932871949691 158.98508004515247 92.72974978367031 H 0.0 **** 0.06
23131 C 165.66774064451977 32.79673001273159 2.514567141955972 C 0.0 **** -0.24
23132 H 165.20811393675908 33.502929574315516 1.8227064892126634 H 0.0 **** 0.06
23133 H 166.3332568446747 33.332840727728296 3.1917998860736034 H 0.0 **** 0.06
23134 H 166.2391026573016 32.0580767159565 1.9526254775316403 H 0.0 **** 0.06
23135 H 164.89025208764565 32.29433782003508 3.090550060682837 H 0.0 **** 0.06
23136 C 119.95826480362996 49.104714217722716 23.699396179332922 C 0.0 **** -0.24
23137 H 118.9375484842293 48.98285349635444 24.059884474753204 H 0.0 **** 0.06
23138 H 120.58354535106446 48.30942531078955 24.10431649138343 H 0.0 **** 0.06
23139 H 120.34502626313025 50.07114271992009 24.022812640438474 H 0.0 **** 0.06
23140 H 119.96793275565392 49.055478201443464 22.61046687415123 H 0.0 **** 0.06
23141 C 157.7750991538674 81.79719565192079 46.083804243141685 C 0.0 **** -0.24
23142 H 157.27731855886157 80.82702172093846 46.10677675984482 H 0.0 **** 0.06
23143 H 158.61748061514413 81.78948752658829 46.77538557426635 H 0.0 **** 0.06
23144 H 157.06851145434013 82.57357895745767 46.37779314764893 H 0.0 **** 0.06
23145 H 158.13520216666993 81.9959881329022 45.074904332479775 H 0.0 **** 0.06
23146 C 160.15480486221952 99.45418679004686 144.58548042699476 C 0.0 **** -0.24
23147 H 159.12945230421735 99.26224955911212 144.90188668136426 H 0.0 **** 0.06
23148 H 160.1472385431686 99.98370248169488 143.63247487738548 H 0.0 **** 0.06
23149 H 160.6827166762925 98.50697072633903 144.4719306903485 H 0.0 **** 0.06
23150 H 160.6588320496765 100.0628425445644 145.3353540305578 H 0.0 **** 0.06
23151 C 125.18709956770294 120.38936817432923 159.83765189867847 C 0.0 **** -0.24
23152 H 125.05511670959993 119.41235170699895 160.3034351616481 H 0.0 **** 0.06
23153 H 124.67852162800568 120.40310732603888 158.87322750261313 H 0.0 **** 0.06
23154 H 126.24929933101703 120.58226303542378 159.69255233375088 H 0.0 **** 0.06
23155 H 124.7624004971135 121.15793340581465 160.4837021088688 H 0.0 **** 0.06
23156 C 131.7868881261318 81.33799764513259 79.12075780209713 C 0.0 **** -0.24
23157 H 131.0503882310371 81.12013517037832 79.89365592663475 H 0.0 **** 0.06
23158 H 131.7733033383698 82.40542076211733 78.8969452486864 H 0.0 **** 0.06
23159 H 131.54577338332322 80.77398244163126 78.2197771078071 H 0.0 **** 0.06
23160 H 132.77784346757227 81.05341754372623 79.47274549070488 H 0.0 **** 0.06
23161 C 116.4865064000009 147.79486769722612 70.77163491958791 C 0.0 **** -0.24
23162 H 116.67859987173958 146.72325741904146 70.71242169265969 H 0.0 **** 0.06
23163 H 116.75465047768836 148.2650372543122 69.82473098801083 H 0.0 **** 0.06
23164 H 117.0836418258722 148.2273405874984 71.57393856985213 H 0.0 **** 0.06
23165 H 115.42811148306899 147.9625049638251 70.97501796414474 H 0.0 **** 0.06
23166 C 179.20826607745556 134.99345428472495 163.52263009426514 C 0.0 **** -0.24
23167 H 180.00761534517582 135.7152993147558 163.35466525881327 H 0.0 **** 0.06
23168 H 178.83786230527016 135.09283790403177 164.54277303369452 H 0.0 **** 0.06
23169 H 179.5917369707878 133.98438201254865 163.371187338766 H 0.0 **** 0.06
23170 H 178.39561940026363 135.18327960730343 162.820884824249 H 0.0 **** 0.06
23171 C 23.84251774756217 69.21699444512728 70.22328161204092 C 0.0 **** -0.24
23172 H 22.877738457832834 69.52483199166005 70.62688990876046 H 0.0 **** 0.06
23173 H 24.234173231800384 70.00323516756328 69.5778095425012 H 0.0 **** 0.06
23174 H 23.71897003913699 68.3006074312533 69.64547757619607 H 0.0 **** 0.06
23175 H 24.538755322424095 69.0392454678402 71.04205031745107 H 0.0 **** 0.06
23176 C 33.446867530434844 95.79957027853584 167.31094030729074 C 0.0 **** -0.24
23177 H 34.20811600368006 95.2760475974926 167.8878982010381 H 0.0 **** 0.06
23178 H 32.478918791930084 95.6855995302696 167.79927174857082 H 0.0 **** 0.06
23179 H 33.39896591678405 95.37863087845153 166.30573029005637 H 0.0 **** 0.06
23180 H 33.700990147621326 96.85769906389464 167.24956564836177 H 0.0 **** 0.06
23181 C 129.15211296567088 177.44752819479933 108.21462478641229 C 0.0 **** -0.24
23182 H 128.29111843420043 177.26367735966852 107.57260768993876 H 0.0 **** 0.06
23183 H 129.283709438423 178.5212363422601 108.34874363633321 H 0.0 **** 0.06
23184 H 130.0452721700649 177.02658234607475 107.75227976035 H 0.0 **** 0.06
23185 H 128.9892426427565 176.97763983264642 109.18436591634963 H 0.0 **** 0.06
23186 C 66.39546416646323 191.31765753737562 24.749779534511845 C 0.0 **** -0.24
23187 H 66.02468157084928 190.2938151664216 24.737381927046187 H 0.0 **** 0.06
23188 H 66.0837428241959 191.8285862772117 23.83814565202607 H 0.0 **** 0.06
23189 H 67.48394206786514 191.3090682197649 24.80737090264398 H 0.0 **** 0.06
23190 H 65.9898014115667 191.84041510025008 25.616793359887737 H 0.0 **** 0.06
23191 C 191.2001312643735 10.45068714507346 9.8274605938049 C 0.0 **** -0.24
23192 H 190.22875198722852 10.17714313554012 10.240456569412487 H 0.0 **** 0.06
23193 H 191.34207912996584 9.948441958841983 8.870304771431265 H 0.0 **** 0.06
23194 H 191.98634659537117 10.147356246228924 10.518572375264988 H 0.0 **** 0.06
23195 H 191.24144947426515 11.530530511651875 9.681444112309414 H 0.0 **** 0.06
23196 C 190.95332735779587 40.56763905844059 133.35459381364456 C 0.0 **** -0.24
23197 H 191.8589341559743 40.421853515005665 132.76662990095318 H 0.0 **** 0.06
23198 H 190.26523575615045 41.212451988657875 132.80739647486675 H 0.0 **** 0.06
23199 H 191.20871924230238 41.03325411588702 134.30684656433198 H 0.0 **** 0.06
23200 H 190.4804202767563 39.60299661421186 133.53750231442626 H 0.0 **** 0.06
23201 C 42.49753400007424 188.085802696371 20.9135305362191 C 0.0 **** -0.24
23202 H 41.73620074706105 187.83234641974911 20.17597221933103 H 0.0 **** 0.06
23203 H 42.51824018320423 189.16637379773044 21.057600126033293 H 0.0 **** 0.06
23204 H 43.47165370239044 187.74752781306614 20.561285484616448 H 0.0 **** 0.06
23205 H 42.2640413676413 187.59696275493823 21.85926431489547 H 0.0 **** 0.06
23206 C 169.38344105125734 181.83542003117304 35.79203511393496 C 0.0 **** -0.24
23207 H 168.97645443434848 180.88135587977797 36.12728751833555 H 0.0 **** 0.06
23208 H 168.8235123900626 182.65100747530073 36.249686398945244 H 0.0 **** 0.06
23209 H 169.30336440301235 181.90312607620308 34.707023451633574 H 0.0 **** 0.06
23210 H 170.43137405661722 181.90619765276767 36.083804939699974 H 0.0 **** 0.06
23211 C 55.462358359405 77.81120364931317 186.04209733130116 C 0.0 **** -0.24
23212 H 55.04108253661097 77.2684259180496 185.1952385929426 H 0.0 **** 0.06
23213 H 56.5503377223484 77.80417535686313 185.97132865605158 H 0.0 **** 0.06
23214 H 55.15541227183033 77.33018906243638 186.9703649279108 H 0.0 **** 0.06
23215 H 55.10349444914468 78.84010771983253 186.0291058353779 H 0.0 **** 0.06
23216 C 101.24701398993909 96.05138301640088 77.57264161436431 C 0.0 **** -0.24
23217 H 100.95321645478077 95.23575059910993 76.91271553642525 H 0.0 **** 0.06
23218 H 101.71970628431177 96.84065610750457 76.9875897557808 H 0.0 **** 0.06
23219 H 101.9512827564352 95.67904687237728 78.3177637655575 H 0.0 **** 0.06
23220 H 100.36478665282868 96.44989789169176 78.07394342916426 H 0.0 **** 0.06
23221 C 164.24903616531532 141.22483549147415 170.7071524999314 C 0.0 **** -0.24
23222 H 163.46284659219836 141.90217263150495 171.04236595573713 H 0.0 **** 0.06
23223 H 164.16683897341846 141.07862459663187 169.63021764845365 H 0.0 **** 0.06
23224 H 164.1408832747909 140.26594977787752 171.21355729069776 H 0.0 **** 0.06
23225 H 165.22275388157473 141.65340495065826 170.94308616901554 H 0.0 **** 0.06
23226 C 196.085685918703 109.03755736621366 167.801670513467 C 0.0 **** -0.24
23227 H 196.0875821559243 110.1271481521803 167.82194353469868 H 0.0 **** 0.06
23228 H 195.22562563369542 108.68710345793193 167.23015667347687 H 0.0 **** 0.06
23229 H 196.02482074454596 108.65596015287048 168.82034840976556 H 0.0 **** 0.06
23230 H 197.0027942104794 108.68149523230221 167.3338769800096 H 0.0 **** 0.06
23231 C 161.35128403564732 81.99554372826628 161.2172712567001 C 0.0 **** -0.24
23232 H 161.51491327520694 81.2003068061133 161.9439454430601 H 0.0 **** 0.06
23233 H 161.88349171021832 82.89273430382741 161.53495941610146 H 0.0 **** 0.06
23234 H 160.2845468020646 82.21085632687925 161.14765183398094 H 0.0 **** 0.06
23235 H 161.72218435509922 81.67827747624506 160.24252833365784 H 0.0 **** 0.06
23236 C 61.499055682432044 21.437517579177708 1.9499207304757533 C 0.0 **** -0.24
23237 H 60.91662075829545 21.102363757839242 2.8086687593375927 H 0.0 **** 0.06
23238 H 62.39372742835681 21.954154011173372 2.2978588761319543 H 0.0 **** 0.06
23239 H 60.896907379077774 22.11682088470441 1.3465998202816252 H 0.0 **** 0.06
23240 H 61.78750793868025 20.575770797410314 1.3487797799194823 H 0.0 **** 0.06
23241 C 84.49564683639778 65.45733806519607 21.542559922687417 C 0.0 **** -0.24
23242 H 84.11435211118038 64.43801040679844 21.488116153152134 H 0.0 **** 0.06
23243 H 84.33089256944638 65.85354783435476 22.545721716038713 H 0.0 **** 0.06
23244 H 83.97463509070778 66.07972583495567 20.81536057091276 H 0.0 **** 0.06
23245 H 85.56387064997747 65.4576564623385 21.323157348300782 H 0.0 **** 0.06
23246 C 196.721325677814 141.88815683399923 170.33496138492112 C 0.0 **** -0.24
23247 H 196.71929866960988 141.86710476473763 171.42535599797282 H 0.0 **** 0.06
23248 H 195.87386426220672 141.31467008823654 169.95971242858448 H 0.0 **** 0.06
23249 H 197.64888800165315 141.45091139599003 169.96592041567322 H 0.0 **** 0.06
23250 H 196.6437296072833 142.91987466831642 169.99125823804846 H 0.0 **** 0.06
23251 C 114.76149774274825 31.47613012718446 147.33396863738216 C 0.0 **** -0.24
23252 H 115.38150626529762 30.641223168274337 147.00646978554045 H 0.0 **** 0.06
23253 H 115.36176377651037 32.385344238998755 147.36225402526892 H 0.0 **** 0.06
23254 H 114.36815528371878 31.267639041357825 148.32863634444203 H 0.0 **** 0.06
23255 H 113.93381076664068 31.608828884383968 146.63601947833058 H 0.0 **** 0.06
23256 C 146.60324400413185 102.7189697695602 114.49152873508626 C 0.0 **** -0.24
23257 H 146.53608230953316 103.61882760205776 115.10358501268908 H 0.0 **** 0.06
23258 H 145.7951576982524 102.71732622684578 113.75910909282373 H 0.0 **** 0.06
23259 H 146.51775471537968 101.83928379599956 115.12920564776616 H 0.0 **** 0.06
23260 H 147.56248698403917 102.70201557958688 113.9747530293125 H 0.0 **** 0.06
23261 C 114.0484322734853 69.50130396366079 72.28699998652839 C 0.0 **** -0.24
23262 H 114.4644632166166 69.9932182236784 71.40700093719533 H 0.0 **** 0.06
23263 H 114.85949954142802 69.13364813061065 72.91528873381466 H 0.0 **** 0.06
23264 H 113.42355381745307 68.66569465245546 71.97362536888129 H 0.0 **** 0.06
23265 H 113.44633627697482 70.21414008341046 72.8504179127056 H 0.0 **** 0.06
23266 C 11.37829029548206 70.87999715663958 59.74378128335081 C 0.0 **** -0.24
23267 H 12.416314186273894 71.19907279576847 59.842081027300196 H 0.0 **** 0.06
23268 H 10.98942785462151 71.2007795553767 58.77659755282713 H 0.0 **** 0.06
23269 H 10.784430414810004 71.32605947141694 60.5421004890741 H 0.0 **** 0.06
23270 H 11.32511407778793 69.79348686809357 59.81471343926586 H 0.0 **** 0.06
23271 C 197.27476781273856 137.80905507056207 12.65223045243745 C 0.0 **** -0.24
23272 H 196.30248747535157 138.25731667923904 12.44845814981155 H 0.0 **** 0.06
23273 H 197.41558810605108 137.7209772071681 13.730143550600019 H 0.0 **** 0.06
23274 H 198.06016005394818 138.439295194846 12.233776012713605 H 0.0 **** 0.06
23275 H 197.32194670487092 136.82029182372597 12.196632974361485 H 0.0 **** 0.06
23276 C 165.0418507000515 42.41761536324671 187.65850471795957 C 0.0 **** -0.24
23277 H 165.07679012734116 43.18460987086283 188.43252303487807 H 0.0 **** 0.06
23278 H 165.77233481817424 42.650295860278234 186.88351282937512 H 0.0 **** 0.06
23279 H 164.04329914252128 42.38891954344598 187.22172670544472 H 0.0 **** 0.06
23280 H 165.27407569808804 41.44792562569393 188.09813300695095 H 0.0 **** 0.06
23281 C 13.079390465026421 52.577663794621714 140.13703289807802 C 0.0 **** -0.24
23282 H 12.568793807329428 51.645237039803646 139.89723491599392 H 0.0 **** 0.06
23283 H 12.359310867160616 53.29245542591791 140.53676906518717 H 0.0 **** 0.06
23284 H 13.534102113434386 52.98533993969943 139.23442381855625 H 0.0 **** 0.06
23285 H 13.85407912136634 52.38775775299638 140.88029858091528 H 0.0 **** 0.06
23286 C 139.79108868054686 35.26252662689687 74.3300466379422 C 0.0 **** -0.24
23287 H 140.85457528334223 35.39116116093241 74.53122338347558 H 0.0 **** 0.06
23288 H 139.56708489994833 34.20091825745965 74.22491499860625 H 0.0 **** 0.06
23289 H 139.53025156463332 35.782742252937425 73.40869525450907 H 0.0 **** 0.06
23290 H 139.2132460666229 35.67508395189789 75.15765830404672 H 0.0 **** 0.06
23291 C 17.358764720785217 131.47137475973895 58.77530984245948 C 0.0 **** -0.24
23292 H 17.92982855681751 130.599828687125 58.45630638299775 H 0.0 **** 0.06
23293 H 16.339768739292253 131.16776025113415 59.017836396166786 H 0.0 **** 0.06
23294 H 17.337835538913907 132.20616182532123 57.97147491829048 H 0.0 **** 0.06
23295 H 17.827379907480378 131.90961184730875 59.65623420645318 H 0.0 **** 0.06
23296 C 91.41472552296551 151.70896535115966 165.71523950149214 C 0.0 **** -0.24
23297 H 91.67257957044004 150.66139295247194 165.55907277652352 H 0.0 **** 0.06
23298 H 91.99339905886433 152.3302438937929 165.03203119994404 H 0.0 **** 0.06
23299 H 91.64265582152547 151.98954594273778 166.7435239911943 H 0.0 **** 0.06
23300 H 90.35149267072927 151.85256138680197 165.52620052380797 H 0.0 **** 0.06
23301 C 23.64116820843458 54.956904590436395 147.76552588814548 C 0.0 **** -0.24
23302 H 23.97476647180696 53.984961994808145 147.40125883820906 H 0.0 **** 0.06
23303 H 22.59390196459941 55.103143394884896 147.50084813843807 H 0.0 **** 0.06
23304 H 24.245198434737233 55.74167256273523 147.31061667956737 H 0.0 **** 0.06
23305 H 23.752093845083948 54.99484846248403 148.84875551617534 H 0.0 **** 0.06
23306 C 193.158190885652 82.12718544071058 90.06402718153768 C 0.0 **** -0.24
23307 H 193.21235249966549 81.41945418108651 89.2365021504173 H 0.0 **** 0.06
23308 H 192.8851536792818 81.59737600024442 90.97700272202971 H 0.0 **** 0.06
23309 H 192.4074075932734 82.88575865696816 89.84417998115114 H 0.0 **** 0.06
23310 H 194.12906763978276 82.60499756100089 90.19694670048938 H 0.0 **** 0.06
23311 C 23.847387929002878 5.258442481187387 21.278423417929346 C 0.0 **** -0.24
23312 H 22.94014886544379 5.161501088353518 20.683019096372405 H 0.0 **** 0.06
23313 H 23.637051698900365 4.973119563707641 22.309523413501125 H 0.0 **** 0.06
23314 H 24.19166550859768 6.2917355808612925 21.250068922370133 H 0.0 **** 0.06
23315 H 24.621055301968056 4.606490026169531 20.87118331206429 H 0.0 **** 0.06
23316 C 28.675513496999315 132.92989712217675 154.75208501677218 C 0.0 **** -0.24
23317 H 27.803706072256404 133.47410604518615 154.3884682519334 H 0.0 **** 0.06
23318 H 29.44174482104978 132.91061229821844 153.9757523685193 H 0.0 **** 0.06
23319 H 28.387607207853137 131.90863834854858 155.0035153040424 H 0.0 **** 0.06
23320 H 29.06941458337043 133.42471025697412 155.63901993364394 H 0.0 **** 0.06
23321 C 183.00645499617463 171.3465827520776 33.03329631646653 C 0.0 **** -0.24
23322 H 183.87376042833333 171.88437829621776 32.64986323208349 H 0.0 **** 0.06
23323 H 182.1521906601194 172.02192937487268 33.07970820789566 H 0.0 **** 0.06
23324 H 183.22682924837733 170.96853502000297 34.031952813291696 H 0.0 **** 0.06
23325 H 182.77598027721768 170.5126505789812 32.37170643053534 H 0.0 **** 0.06
23326 C 39.37931678138591 134.02878189503843 10.177217036875277 C 0.0 **** -0.24
23327 H 39.422039196061746 134.8447620626987 10.89812814623349 H 0.0 **** 0.06
23328 H 40.19897810289132 133.33597581024594 10.364926138148633 H 0.0 **** 0.06
23329 H 39.466646828709 134.43123376775503 9.168642990260253 H 0.0 **** 0.06
23330 H 38.42877957595471 133.5048590313046 10.278363165844155 H 0.0 **** 0.06
23331 C 167.25516906517063 20.03261831989829 41.20263456782416 C 0.0 **** -0.24
23332 H 167.56967365031414 19.06103405044918 40.82094285204376 H 0.0 **** 0.06
23333 H 167.8093355922256 20.26268382501975 42.11229658929197 H 0.0 **** 0.06
23334 H 166.1884696133094 20.00771424020334 41.422338275238246 H 0.0 **** 0.06
23335 H 167.45515317458384 20.798096256373086 40.451913848789744 H 0.0 **** 0.06
23336 C 89.70078867466248 10.716715190601292 190.84829850290075 C 0.0 **** -0.24
23337 H 88.92429742685053 10.598992144886552 190.09343276857012 H 0.0 **** 0.06
23338 H 90.4997814932461 9.999272164323514 190.66353745769743 H 0.0 **** 0.06
23339 H 89.27447848529243 10.540975855188378 191.8366441003179 H 0.0 **** 0.06
23340 H 90.10220310030931 11.72960939919318 190.80139979242344 H 0.0 **** 0.06
23341 C 178.51121843544178 131.17040330887596 92.63829110000134 C 0.0 **** -0.24
23342 H 177.80372230880715 131.57171998743758 93.36355920643447 H 0.0 **** 0.06
23343 H 178.41830512484594 131.71857591393544 91.70013300070096 H 0.0 **** 0.06
23344 H 178.29534047042944 130.11600252170794 92.46599378295252 H 0.0 **** 0.06
23345 H 179.52454499106926 131.27578022603186 93.02360868671443 H 0.0 **** 0.06
23346 C 28.62016440758987 23.86203562700922 129.76330120514714 C 0.0 **** -0.24
23347 H 28.01431298129131 24.1232308266803 128.89543266250547 H 0.0 **** 0.06
23348 H 28.462188792175965 22.813069558378487 130.014166859771 H 0.0 **** 0.06
23349 H 28.331777315073822 24.486268503830388 130.60817329673858 H 0.0 **** 0.06
23350 H 29.67370061599489 24.026187943814477 129.53280999477983 H 0.0 **** 0.06
23351 C 145.76903665733516 75.5381694569202 112.71965492901165 C 0.0 **** -0.24
23352 H 146.16999112767812 76.43759492923735 113.18810453996105 H 0.0 **** 0.06
23353 H 146.59037256295062 74.90933285260596 112.37878325681658 H 0.0 **** 0.06
23354 H 145.14821121686467 75.81910195590024 111.86800804252209 H 0.0 **** 0.06
23355 H 145.16564910768463 74.98984825614019 113.44347329005575 H 0.0 **** 0.06
23356 C 122.18275534075275 23.89659347533052 77.47039729591353 C 0.0 **** -0.24
23357 H 121.84232639702572 24.23481553080643 78.4483996625263 H 0.0 **** 0.06
23358 H 122.30266092356433 22.812825192996797 77.48187181180349 H 0.0 **** 0.06
23359 H 123.13904834344763 24.36602473003768 77.23668443298496 H 0.0 **** 0.06
23360 H 121.44782754246401 24.17318647876374 76.71438266259936 H 0.0 **** 0.06
23361 C 14.220539762742362 159.11620686971474 25.349493109230934 C 0.0 **** -0.24
23362 H 14.433014822784514 160.04439404346073 24.817997460466344 H 0.0 **** 0.06
23363 H 14.898220976210723 159.02116470903815 26.198467115458044 H 0.0 **** 0.06
23364 H 14.360691457907109 158.27123462460202 24.67536323375694 H 0.0 **** 0.06
23365 H 13.191092067351633 159.13032061501872 25.70596597482735 H 0.0 **** 0.06
23366 C 65.84878850751932 93.42752190019326 15.876759811083275 C 0.0 **** -0.24
23367 H 65.78535925172707 94.10475344745737 15.024148600821093 H 0.0 **** 0.06
23368 H 65.19883148097733 92.56902241281941 15.707118485868193 H 0.0 **** 0.06
23369 H 65.53406995844148 93.94987353598745 16.78000378595516 H 0.0 **** 0.06
23370 H 66.87793723728248 93.08777876306974 15.994003914639677 H 0.0 **** 0.06
23371 C 168.91439581893627 52.76796433977738 24.886380700221395 C 0.0 **** -0.24
23372 H 169.3160722591088 51.907336637219274 24.35149690179381 H 0.0 **** 0.06
23373 H 169.60131199431194 53.608783377156385 24.788558396253848 H 0.0 **** 0.06
23374 H 168.79442350942676 52.516851306750794 25.940056913725357 H 0.0 **** 0.06
23375 H 167.94667108791532 53.038070632141554 24.464680450814228 H 0.0 **** 0.06
23376 C 194.46666189400523 116.08159392678274 43.215136821254646 C 0.0 **** -0.24
23377 H 193.65911443224726 115.37564094986868 43.020657571621626 H 0.0 **** 0.06
23378 H 194.22249107087958 116.68078367962147 44.091802613821756 H 0.0 **** 0.06
23379 H 194.5920563222185 116.73511752099145 42.35176272254728 H 0.0 **** 0.06
23380 H 195.39276039371128 115.53465468052664 43.393338173397694 H 0.0 **** 0.06
23381 C 183.4376746365126 193.42448516744776 27.178210575266007 C 0.0 **** -0.24
23382 H 183.35301419987164 193.62298376696492 26.110173787117503 H 0.0 **** 0.06
23383 H 184.12220161846403 194.1449825148729 27.627986193227372 H 0.0 **** 0.06
23384 H 183.82144059562168 192.41558903586247 27.33005578872627 H 0.0 **** 0.06
23385 H 182.45682930120512 193.51491731760757 27.643652419278112 H 0.0 **** 0.06
23386 C 4.1257675170678 65.5317716490689 127.45761421715508 C 0.0 **** -0.24
23387 H 4.882064836840357 65.00360690210641 128.0385815608023 H 0.0 **** 0.06
23388 H 4.482819559731865 66.53459497865725 127.22401224298977 H 0.0 **** 0.06
23389 H 3.2041498315443278 65.59828252510192 128.03547650121453 H 0.0 **** 0.06
23390 H 3.936105715811749 64.98843889685861 126.53095967414393 H 0.0 **** 0.06
23391 C 163.66684301716202 109.08263452412677 49.795793958005845 C 0.0 **** -0.24
23392 H 163.23703610995656 108.11210843731158 49.55254353055909 H 0.0 **** 0.06
23393 H 164.67561325488793 108.94578495164635 50.1861662137033 H 0.0 **** 0.06
23394 H 163.05026444774626 109.57534312734211 50.54789022359324 H 0.0 **** 0.06
23395 H 163.7050705941026 109.69891562017534 48.896717221690096 H 0.0 **** 0.06
23396 C 40.879794454941404 23.752069017970925 136.39514061293565 C 0.0 **** -0.24
23397 H 40.046447836144054 23.889940071781183 135.7067209353088 H 0.0 **** 0.06
23398 H 40.69644992234697 22.874099637639375 137.01493190230264 H 0.0 **** 0.06
23399 H 40.976093642392655 24.63186148972558 137.03013535418708 H 0.0 **** 0.06
23400 H 41.79950807636476 23.610528656454335 135.82771056593342 H 0.0 **** 0.06
23401 C 55.7147951172868 80.3407223062429 129.23222277103383 C 0.0 **** -0.24
23402 H 55.315728566088396 79.39356387579485 128.86770047779424 H 0.0 **** 0.06
23403 H 55.120050410718235 80.68201698671638 130.0802837273975 H 0.0 **** 0.06
23404 H 55.67318164227916 81.08325705743772 128.43575862866038 H 0.0 **** 0.06
23405 H 56.749666295666955 80.20095354144257 129.54546074748612 H 0.0 **** 0.06
23406 C 39.99033385636214 112.003966398676 163.9792890478118 C 0.0 **** -0.24
23407 H 40.62194749149451 111.1931595940222 163.61619646257856 H 0.0 **** 0.06
23408 H 40.4520780142128 112.96085216788259 163.7361581438937 H 0.0 **** 0.06
23409 H 39.87573048567029 111.91808253934263 165.05953887926808 H 0.0 **** 0.06
23410 H 39.01086692140787 111.94157731902214 163.50443873245814 H 0.0 **** 0.06
23411 C 183.06385355447603 21.036280509570958 144.47066078686214 C 0.0 **** -0.24
23412 H 182.7662672785356 21.94450209483773 144.99424041885214 H 0.0 **** 0.06
23413 H 182.71124468787386 20.166320750145985 145.02473721465736 H 0.0 **** 0.06
23414 H 184.15020890520321 21.0010305969833 144.39128717991022 H 0.0 **** 0.06
23415 H 182.62675505844058 21.03350875405374 143.472129412783 H 0.0 **** 0.06
23416 C 152.89697042367112 190.82824795998113 5.160513198226148 C 0.0 **** -0.24
23417 H 152.26297491076286 191.4458968777072 4.524830750720298 H 0.0 **** 0.06
23418 H 152.96213728789053 189.8232856378906 4.743829040552114 H 0.0 **** 0.06
23419 H 152.46950456698258 190.7796581744153 6.161926026387626 H 0.0 **** 0.06
23420 H 153.89466624935636 191.26511201283563 5.2129206436796665 H 0.0 **** 0.06
23421 C 48.84169599202336 152.6787946806573 150.18581023454237 C 0.0 **** -0.24
23422 H 48.72788988045046 153.75894479587902 150.27993031336928 H 0.0 **** 0.06
23423 H 49.875926490369395 152.4429930115708 149.93464587369283 H 0.0 **** 0.06
23424 H 48.18282017374244 152.31272840355624 149.39742273259697 H 0.0 **** 0.06
23425 H 48.578303568483776 152.2024658910746 151.12990609117935 H 0.0 **** 0.06
23426 C 87.82182635672297 106.83713895349305 132.23590459694336 C 0.0 **** -0.24
23427 H 88.29541443649748 107.79478394789172 132.45627046829992 H 0.0 **** 0.06
23428 H 88.52844458129695 106.03030063259217 132.4315708979418 H 0.0 **** 0.06
23429 H 87.52253110124067 106.81242534520163 131.18811059569705 H 0.0 **** 0.06
23430 H 86.94354088029826 106.71353402883736 132.86862341517053 H 0.0 **** 0.06
23431 C 131.9724348448051 17.05483283857012 73.96415938593498 C 0.0 **** -0.24
23432 H 131.8998200601602 16.36189469753802 74.80237207175648 H 0.0 **** 0.06
23433 H 132.3129722782037 18.026485615659425 74.3244590642923 H 0.0 **** 0.06
23434 H 130.9942406420513 17.162815405473907 73.49648371761208 H 0.0 **** 0.06
23435 H 132.68349950751832 16.668312552255657 73.23448015381608 H 0.0 **** 0.06
23436 C 130.80322184007315 170.13054073087767 68.29949151768302 C 0.0 **** -0.24
23437 H 131.2698152234149 170.96004875471237 68.82945161426873 H 0.0 **** 0.06
23438 H 131.02710927819768 169.1974031191305 68.81776299542354 H 0.0 **** 0.06
23439 H 131.19413739974934 170.08365625778038 67.28227886095434 H 0.0 **** 0.06
23440 H 129.72457304697198 170.27969385556668 68.26769876001615 H 0.0 **** 0.06
23441 C 55.46601940969873 58.11687300956953 156.42236272976967 C 0.0 **** -0.24
23442 H 55.39624156457333 58.71416662578105 157.33164050770762 H 0.0 **** 0.06
23443 H 54.60679428235791 58.32554337793846 155.78465782279187 H 0.0 **** 0.06
23444 H 55.477130149058866 57.059578826972654 156.68343015988398 H 0.0 **** 0.06
23445 H 56.383445172620455 58.37110698379581 155.891255636794 H 0.0 **** 0.06
23446 C 102.41554199885698 49.48297482367575 130.93567948590038 C 0.0 **** -0.24
23447 H 101.42334665378226 49.47104926014744 130.4836165711319 H 0.0 **** 0.06
23448 H 102.32621749714573 49.34757184553483 132.01328323364086 H 0.0 **** 0.06
23449 H 102.89731084347906 50.43785587372059 130.7272289481076 H 0.0 **** 0.06
23450 H 103.01417171282591 48.67409282521413 130.5157651144689 H 0.0 **** 0.06
23451 C 184.01958479961013 143.59847010742658 115.49699764387611 C 0.0 **** -0.24
23452 H 184.01748978370858 142.94927126141067 114.62137663387091 H 0.0 **** 0.06
23453 H 184.41780759335052 143.0536112305464 116.3527400616054 H 0.0 **** 0.06
23454 H 183.00060131115185 143.92011436373963 115.71278992893883 H 0.0 **** 0.06
23455 H 184.64158867207567 144.4718306045327 115.30046950159476 H 0.0 **** 0.06
23456 C 67.53381254996083 67.8307478185144 12.279608747427801 C 0.0 **** -0.24
23457 H 67.1762853600177 66.8058698644245 12.178484185520688 H 0.0 **** 0.06
23458 H 67.75258506317275 68.23774638658 11.292435797227881 H 0.0 **** 0.06
23459 H 68.44044272437498 67.84040016103421 12.88533827488095 H 0.0 **** 0.06
23460 H 66.7683230746413 68.4366816188209 12.762396210326642 H 0.0 **** 0.06
23461 C 174.20733593672998 195.08392561924006 175.95713720285835 C 0.0 **** -0.24
23462 H 174.97613894764567 194.40340920068388 176.32598142784855 H 0.0 **** 0.06
23463 H 173.54045250574904 195.35514474006538 176.7759341091222 H 0.0 **** 0.06
23464 H 173.63626714185241 194.59245622011997 175.17015694913727 H 0.0 **** 0.06
23465 H 174.67811465396068 195.98174838771683 175.5588592595472 H 0.0 **** 0.06
23466 C 182.9297265932064 73.22886001411682 80.02030010675077 C 0.0 **** -0.24
23467 H 181.88004994220566 73.11982529614349 80.29346131521118 H 0.0 **** 0.06
23468 H 183.36441759262732 72.24382198615348 79.8503898323975 H 0.0 **** 0.06
23469 H 183.46483470117315 73.72827709671229 80.82814079550607 H 0.0 **** 0.06
23470 H 183.00785175228637 73.8233304404856 79.1101544871544 H 0.0 **** 0.06
23471 C 113.34971707955546 84.24153541104019 157.94483353387915 C 0.0 **** -0.24
23472 H 112.59463454620297 84.9557752259673 157.61631787325024 H 0.0 **** 0.06
23473 H 113.03726961450496 83.78960975513081 158.88647172074857 H 0.0 **** 0.06
23474 H 114.29975887414628 84.75665536077358 158.0870330741614 H 0.0 **** 0.06
23475 H 113.46720528336746 83.46410130228901 157.18951146735643 H 0.0 **** 0.06
23476 C 179.59354768948108 148.99125953131642 128.74449952291198 C 0.0 **** -0.24
23477 H 179.7713256763565 147.9325837773331 128.93291479104886 H 0.0 **** 0.06
23478 H 180.4240435098351 149.4020050458754 128.1696782348191 H 0.0 **** 0.06
23479 H 179.51065639094398 149.52000365146063 129.6936066569381 H 0.0 **** 0.06
23480 H 178.66827136347285 149.1098793955153 128.18050685022789 H 0.0 **** 0.06
23481 C 16.28598683383713 156.63021396060276 12.454479149452787 C 0.0 **** -0.24
23482 H 17.285085974608393 156.72759638387885 12.88044073810319 H 0.0 **** 0.06
23483 H 15.70967388271552 157.53057523625174 12.671014763168685 H 0.0 **** 0.06
23484 H 15.787049378187334 155.76575423419757 12.891374397295493 H 0.0 **** 0.06
23485 H 16.36338826700633 156.49965612137683 11.375160684808769 H 0.0 **** 0.06
23486 C 172.28946801390794 101.69233992797152 165.0093338436119 C 0.0 **** -0.24
23487 H 172.44398180202217 100.61367805550788 164.9986697221872 H 0.0 **** 0.06
23488 H 173.1900022357819 102.18451860554345 165.37871573306367 H 0.0 **** 0.06
23489 H 171.45025495628198 101.93330878008416 165.66195865316695 H 0.0 **** 0.06
23490 H 172.0744953300795 102.03855225796516 163.99886839205078 H 0.0 **** 0.06
23491 C 12.76993851364503 63.76716866460991 3.37769772499837 C 0.0 **** -0.24
23492 H 13.66491090781934 64.31244371494758 3.6774496500113116 H 0.0 **** 0.06
23493 H 12.803849701341214 63.57550833552034 2.3052057518911795 H 0.0 **** 0.06
23494 H 11.88693423071853 64.36144263672749 3.613766730172813 H 0.0 **** 0.06
23495 H 12.724188698160035 62.82009940671176 3.9155141075102335 H 0.0 **** 0.06
23496 C 88.60351234414395 39.77652697432359 20.884177329820886 C 0.0 **** -0.24
23497 H 87.52867815834318 39.89311509758201 20.746884371442945 H 0.0 **** 0.06
23498 H 88.79224577039864 39.155559392729884 21.76025989018939 H 0.0 **** 0.06
23499 H 89.05907326321002 40.75611814797165 21.02845851574355 H 0.0 **** 0.06
23500 H 89.03280021005574 39.3016506797598 20.002255505550295 H 0.0 **** 0.06
23501 C 35.05708848177274 140.42021354165772 32.8881637671886 C 0.0 **** -0.24
23502 H 34.17741006616295 139.84675885413154 33.17998611594261 H 0.0 **** 0.06
23503 H 35.71663836059993 140.53709018609356 33.74840181683285 H 0.0 **** 0.06
23504 H 34.748442647439774 141.40207559481962 32.52991758061886 H 0.0 **** 0.06
23505 H 35.58642723270452 139.89443655416602 32.09368738445838 H 0.0 **** 0.06
23506 C 175.19693622368632 148.57934126552254 130.9767998427737 C 0.0 **** -0.24
23507 H 175.26324470932337 149.32999604538395 130.18957925260284 H 0.0 **** 0.06
23508 H 175.85765788462675 147.7448404795557 130.73968588208874 H 0.0 **** 0.06
23509 H 174.1697005658072 148.22044505042481 131.0511982547378 H 0.0 **** 0.06
23510 H 175.49632247556406 149.0216000492701 131.92704440319505 H 0.0 **** 0.06
23511 C 127.81333690125618 109.49029785867708 42.875469530592966 C 0.0 **** -0.24
23512 H 127.19631238419305 108.59917624657868 42.99144238812539 H 0.0 **** 0.06
23513 H 127.4315266374013 110.09250193756509 42.0506920668156 H 0.0 **** 0.06
23514 H 128.84126888706854 109.19580220260502 42.6647497727316 H 0.0 **** 0.06
23515 H 127.78347254954195 110.07408146132855 43.79551763252459 H 0.0 **** 0.06
23516 C 24.70635345135466 106.59664784564646 12.592237801402575 C 0.0 **** -0.24
23517 H 23.81518244555079 106.56098587448727 11.964750615682597 H 0.0 **** 0.06
23518 H 25.595495176151715 106.56618425179789 11.962286493647227 H 0.0 **** 0.06
23519 H 24.709208949232917 105.74086687824655 13.267946675597138 H 0.0 **** 0.06
23520 H 24.70379864128384 107.51845286129944 13.174008950795773 H 0.0 **** 0.06
23521 C 33.3643548614005 56.963130123194446 71.81280676988119 C 0.0 **** -0.24
23522 H 34.17179278667905 57.01139402594765 71.08282714387313 H 0.0 **** 0.06
23523 H 32.53450560090121 57.58599638982349 71.47842449160024 H 0.0 **** 0.06
23524 H 33.72453172983012 57.32300343278297 72.77612939906768 H 0.0 **** 0.06
23525 H 33.027216458960254 55.93107661427524 71.9131359834794 H 0.0 **** 0.06
23526 C 37.542321489114656 91.08937904253219 123.32419020804466 C 0.0 **** -0.24
23527 H 38.58861333731576 90.79426792255742 123.23931678791479 H 0.0 **** 0.06
23528 H 37.357080696427914 91.95520203494709 122.68801484746118 H 0.0 **** 0.06
23529 H 37.3199101630141 91.34498637436513 124.3603430843255 H 0.0 **** 0.06
23530 H 36.905380396361 90.26327207097268 123.00882218896069 H 0.0 **** 0.06
23531 C 187.44803801658867 86.43348045138487 88.00441861796571 C 0.0 **** -0.24
23532 H 188.03262463867952 85.90109298387716 87.25422081385602 H 0.0 **** 0.06
23533 H 188.09950187267927 87.10665588530381 88.56099506859914 H 0.0 **** 0.06
23534 H 186.99574179806845 85.71552918161316 88.68824957479592 H 0.0 **** 0.06
23535 H 186.66513185036206 87.00890931227119 87.51170448611356 H 0.0 **** 0.06
23536 C 102.6616164964721 9.626196313147702 126.06602515057915 C 0.0 **** -0.24
23537 H 101.76939531176396 9.002142048423572 125.99926172702476 H 0.0 **** 0.06
23538 H 103.41657415938289 9.253131916034498 125.37425021878585 H 0.0 **** 0.06
23539 H 103.05060639772887 9.593457704304377 127.08308153748789 H 0.0 **** 0.06
23540 H 102.40602450488836 10.653633673900941 125.80705819497331 H 0.0 **** 0.06
23541 C 87.22836188480022 160.33283415266663 64.75171359921296 C 0.0 **** -0.24
23542 H 86.27046059905285 160.1406042816093 64.2683633256998 H 0.0 **** 0.06
23543 H 87.0601187969088 160.84091222506748 65.70240106868306 H 0.0 **** 0.06
23544 H 87.8409786008358 160.96306088985148 64.10668204107043 H 0.0 **** 0.06
23545 H 87.74179475993606 159.38788451874566 64.93025928334598 H 0.0 **** 0.06
23546 C 154.41946204670344 7.757980770700385 0.3008232158140487 C 0.0 **** -0.24
23547 H 154.21232467129295 8.273230485772729 1.2381083885299375 H 0.0 **** 0.06
23548 H 155.47239506169026 7.475576038227473 0.26643793120430814 H 0.0 **** 0.06
23549 H 154.19357521464784 8.42099899668105 -0.535017485646101 H 0.0 **** 0.06
23550 H 153.80034674867494 6.863261488890629 0.23351539798814258 H 0.0 **** 0.06
23551 C 43.95242795361071 47.6363826192257 32.83654670511112 C 0.0 **** -0.24
23552 H 43.629400997631876 48.40469952631827 32.13410923618741 H 0.0 **** 0.06
23553 H 45.02756633636676 47.717486717849695 32.99424974767064 H 0.0 **** 0.06
23554 H 43.71607820788512 46.652186638618815 32.431477868744764 H 0.0 **** 0.06
23555 H 43.43358653117804 47.77183982192966 33.78612641828849 H 0.0 **** 0.06
23556 C 132.9569466716661 21.029188057093492 179.2547077085207 C 0.0 **** -0.24
23557 H 132.8297401226014 20.29767794095892 178.4561677003622 H 0.0 **** 0.06
23558 H 132.12032012164912 20.95522917016551 179.95070614133817 H 0.0 **** 0.06
23559 H 132.98867034261934 22.03095807751035 178.82726285945205 H 0.0 **** 0.06
23560 H 133.8893650435087 20.82932123203841 179.78425841485628 H 0.0 **** 0.06
23561 C 142.617706323184 115.52902749778374 67.6973089850884 C 0.0 **** -0.24
23562 H 141.65920007032537 115.0479261059956 67.8925598519225 H 0.0 **** 0.06
23563 H 143.12727174999426 115.00672829020692 66.88678364677128 H 0.0 **** 0.06
23564 H 143.23228611508588 115.4911191118577 68.59700411494387 H 0.0 **** 0.06
23565 H 142.45253228807252 116.56754994042731 67.41302686340174 H 0.0 **** 0.06
23566 C 85.86485726955993 27.5914690423256 119.70559052696944 C 0.0 **** -0.24
23567 H 86.28226603838255 26.907753946070827 118.96670673412424 H 0.0 **** 0.06
23568 H 84.79634670639734 27.714085823341264 119.52366465891416 H 0.0 **** 0.06
23569 H 86.36018818985406 28.55878291277483 119.62708690589801 H 0.0 **** 0.06
23570 H 86.01876298405602 27.184551697191168 120.70507338848967 H 0.0 **** 0.06
23571 C 138.63938227524636 54.7101683312369 47.73437389202644 C 0.0 **** -0.24
23572 H 138.14701880141985 54.85217959284846 46.771932355919915 H 0.0 **** 0.06
23573 H 139.37255685259265 53.90712218614115 47.65054287406579 H 0.0 **** 0.06
23574 H 137.8968837749777 54.4465977626497 48.48673097943646 H 0.0 **** 0.06
23575 H 139.1405682689889 55.63215556433752 48.02566374883415 H 0.0 **** 0.06
23576 C 77.7620254394474 132.71106203110043 18.64046128109642 C 0.0 **** -0.24
23577 H 78.31226504249183 133.0408430074655 17.75884879059059 H 0.0 **** 0.06
23578 H 78.04339231188446 133.32686052610867 19.49579783443272 H 0.0 **** 0.06
23579 H 78.00084492741873 131.6684094083026 18.848486347424725 H 0.0 **** 0.06
23580 H 76.69165416885384 132.8098565797988 18.458528127573715 H 0.0 **** 0.06
23581 C 127.65279547760517 54.666802332285116 54.060811371880334 C 0.0 **** -0.24
23582 H 127.7367104409231 54.03763683797929 53.17446338676419 H 0.0 **** 0.06
23583 H 127.6068319200453 55.713960254164306 53.76050596698067 H 0.0 **** 0.06
23584 H 128.5202675171268 54.50887766215622 54.70166372801049 H 0.0 **** 0.06
23585 H 126.74575641174403 54.40537402306032 54.60587839141044 H 0.0 **** 0.06
23586 C 149.07579563462372 121.35855295612524 67.09782844530278 C 0.0 **** -0.24
23587 H 150.09478234156214 121.7388488032646 67.17314015415043 H 0.0 **** 0.06
23588 H 148.9452104020505 120.53021998145059 67.79460794782409 H 0.0 **** 0.06
23589 H 148.89206878369848 121.01127875103555 66.08161993816158 H 0.0 **** 0.06
23590 H 148.37211723162181 122.15379983149799 67.3420041509904 H 0.0 **** 0.06
23591 C 133.7634409155911 30.136984873409347 113.80912842845584 C 0.0 **** -0.24
23592 H 133.00953782497072 30.91407053214249 113.6830622086959 H 0.0 **** 0.06
23593 H 133.403759586692 29.207600559630748 113.36627535352636 H 0.0 **** 0.06
23594 H 133.95355397661916 29.984087212176917 114.87129367134187 H 0.0 **** 0.06
23595 H 134.68549450209116 30.442663551419685 113.31422195087882 H 0.0 **** 0.06
23596 C 18.727978260218265 15.291836471733262 197.9633425753824 C 0.0 **** -0.24
23597 H 18.27713405947577 15.89268907480863 198.75424546153351 H 0.0 **** 0.06
23598 H 18.60336562451154 14.234172812546973 198.19584840405224 H 0.0 **** 0.06
23599 H 19.790449747623683 15.525667217170735 197.89145227009524 H 0.0 **** 0.06
23600 H 18.2419443084502 15.51703916744546 197.01467013430846 H 0.0 **** 0.06
23601 C 59.13409999939583 59.30039539156542 112.01614134400961 C 0.0 **** -0.24
23602 H 58.642224981492234 58.675129332278345 111.2711634922399 H 0.0 **** 0.06
23603 H 59.65088280116194 60.12123115546859 111.51806516066546 H 0.0 **** 0.06
23604 H 59.855983377754285 58.70185303690113 112.57285235149533 H 0.0 **** 0.06
23605 H 58.389103729114154 59.70267101717093 112.70302530261304 H 0.0 **** 0.06
23606 C 46.60310881099605 3.4220396981114476 147.09378094954283 C 0.0 **** -0.24
23607 H 47.23686135716707 3.969586079299539 147.79149389643194 H 0.0 **** 0.06
23608 H 45.58274531731877 3.802275582953392 147.15643658272978 H 0.0 **** 0.06
23609 H 46.61221934711878 2.3621930752102998 147.35004221543525 H 0.0 **** 0.06
23610 H 46.98012119131596 3.5543572194086934 146.08010032855816 H 0.0 **** 0.06
23611 C 154.79600199460367 39.76489874020356 99.03708688126858 C 0.0 **** -0.24
23612 H 154.06520197478486 40.38285554561037 99.55772531268917 H 0.0 **** 0.06
23613 H 154.36906700221073 39.409157726734975 98.09903648803788 H 0.0 **** 0.06
23614 H 155.06092479668666 38.91103018172586 99.66174287115109 H 0.0 **** 0.06
23615 H 155.68874690997478 40.35513902811124 98.82986331691438 H 0.0 **** 0.06
23616 C 97.98484634142847 124.88325224044152 92.97552655793808 C 0.0 **** -0.24
23617 H 96.95746198801646 124.78503113903187 93.3242021356669 H 0.0 **** 0.06
23618 H 98.57049880283193 125.4249234013522 93.71783593782632 H 0.0 **** 0.06
23619 H 97.99826550344022 125.42941763822122 92.03248098087772 H 0.0 **** 0.06
23620 H 98.41307164656223 123.89161946498388 92.8266265045184 H 0.0 **** 0.06
23621 C 163.67170031548756 19.717488877538244 128.76208359891766 C 0.0 **** -0.24
23622 H 164.07151935244897 20.198595345548682 129.65567859880315 H 0.0 **** 0.06
23623 H 162.58320583722343 19.696532333019434 128.81865465240037 H 0.0 **** 0.06
23624 H 164.05274925535744 18.699012038886906 128.69689703971406 H 0.0 **** 0.06
23625 H 163.9793624721999 20.27933321327089 127.88020683851272 H 0.0 **** 0.06
23626 C 51.47172062640219 122.84203276021515 184.87037126542577 C 0.0 **** -0.24
23627 H 51.65822172711137 123.89957721321753 185.06046802502644 H 0.0 **** 0.06
23628 H 50.52125122584083 122.7285859323066 184.34978947537837 H 0.0 **** 0.06
23629 H 51.433667818531276 122.30405969220897 185.8177822912116 H 0.0 **** 0.06
23630 H 52.275021124183425 122.43684501451804 184.25502186565353 H 0.0 **** 0.06
23631 C 165.39432813817987 155.4318458413349 160.3819414224813 C 0.0 **** -0.24
23632 H 165.18805798314656 156.50128114077842 160.42638743706374 H 0.0 **** 0.06
23633 H 166.14736550908177 155.17602236185536 161.12851545512385 H 0.0 **** 0.06
23634 H 165.7625694928813 155.17346015205868 159.38964570087808 H 0.0 **** 0.06
23635 H 164.47840807990855 154.877382338308 160.58597169007314 H 0.0 **** 0.06
23636 C 21.249105367701958 190.35391439636777 182.26647731072092 C 0.0 **** -0.24
23637 H 20.522455678232234 191.041412587374 181.83397628128853 H 0.0 **** 0.06
23638 H 20.756436590396163 189.72631430707395 183.00912344898018 H 0.0 **** 0.06
23639 H 22.047300308149147 190.9231445935739 182.74336672337347 H 0.0 **** 0.06
23640 H 21.66894952660209 189.7266314739349 181.4804215304273 H 0.0 **** 0.06
23641 C 88.92779063288279 59.25281477500812 198.78498431099422 C 0.0 **** -0.24
23642 H 88.72012184954059 60.322648429096034 198.76467887037273 H 0.0 **** 0.06
23643 H 88.01444436553089 58.70929495660033 199.02449101436696 H 0.0 **** 0.06
23644 H 89.68405980035058 59.044266786417296 199.54164828026472 H 0.0 **** 0.06
23645 H 89.29493093576681 58.93556327634985 197.80907080999623 H 0.0 **** 0.06
23646 C 109.2660821675079 25.67367390505177 90.86865228577133 C 0.0 **** -0.24
23647 H 108.20579715127491 25.695275842614677 91.11999610887597 H 0.0 **** 0.06
23648 H 109.83340439735346 26.18730904567451 91.64560475454317 H 0.0 **** 0.06
23649 H 109.42330462603869 26.172798853001623 89.91335126966604 H 0.0 **** 0.06
23650 H 109.60140957702578 24.638502027707673 90.79793160208789 H 0.0 **** 0.06
23651 C 196.73240463764205 145.66856471621352 2.763754728792186 C 0.0 **** -0.24
23652 H 196.22854045783583 144.70311301175988 2.723213804034721 H 0.0 **** 0.06
23653 H 197.62124434902333 145.58699396786483 3.3909149190703687 H 0.0 **** 0.06
23654 H 196.057635285335 146.41338343053803 3.184888996722165 H 0.0 **** 0.06
23655 H 197.02310761898661 145.96881059563088 1.757828868127774 H 0.0 **** 0.06
23656 C 20.976867846183936 196.09783731887575 188.74736901007304 C 0.0 **** -0.24
23657 H 20.993235789611447 196.22284789955876 189.83025041478763 H 0.0 **** 0.06
23658 H 21.504322314600188 195.18206819315122 188.48050317578432 H 0.0 **** 0.06
23659 H 21.464275583686074 196.9506656905123 188.2762075496634 H 0.0 **** 0.06
23660 H 19.94341708284368 196.03546732921532 188.40597598992954 H 0.0 **** 0.06
23661 C 94.72561037604123 121.95032738637298 11.953650282210276 C 0.0 **** -0.24
23662 H 95.04790549403234 122.780418140432 12.580903693417504 H 0.0 **** 0.06
23663 H 95.19860166292816 122.03028578654065 10.974353799296715 H 0.0 **** 0.06
23664 H 93.64231835736479 121.9811572911211 11.838313408228998 H 0.0 **** 0.06
23665 H 95.0141406613835 121.00818581844021 12.421391937914066 H 0.0 **** 0.06
23666 C 102.6682875862636 54.770793929904755 99.3843331145276 C 0.0 **** -0.24
23667 H 103.48485295607873 54.8466781398767 100.10111078370988 H 0.0 **** 0.06
23668 H 101.7157759544757 54.87538900005757 99.90493293165807 H 0.0 **** 0.06
23669 H 102.70703550204183 53.800103078032976 98.8901008316823 H 0.0 **** 0.06
23670 H 102.76402802861253 55.56131401080461 98.63952074383312 H 0.0 **** 0.06
23671 C 160.59384577337977 101.70481577261515 119.74779039264507 C 0.0 **** -0.24
23672 H 159.6320949740333 101.5340463607956 119.26258433166572 H 0.0 **** 0.06
23673 H 161.24505478020887 102.2647331774188 119.0762674811458 H 0.0 **** 0.06
23674 H 161.0545503919393 100.74587744534236 119.98656902845806 H 0.0 **** 0.06
23675 H 160.4416690334013 102.27337670729602 120.66508281065163 H 0.0 **** 0.06
23676 C 124.71046397295166 31.271490197714755 70.05567491553148 C 0.0 **** -0.24
23677 H 125.15595259777021 30.755956418298013 70.90606804501465 H 0.0 **** 0.06
23678 H 124.44281390711137 32.28739210655722 70.34686290368768 H 0.0 **** 0.06
23679 H 123.81577741353772 30.73765326324991 69.73485288389031 H 0.0 **** 0.06
23680 H 125.4281130258189 31.305220446367997 69.23545433102385 H 0.0 **** 0.06
23681 C 99.9355547579832 123.7220263987868 130.38288100500242 C 0.0 **** -0.24
23682 H 99.89220809604635 124.22830688915127 129.41800959516843 H 0.0 **** 0.06
23683 H 100.43554242138373 124.36492314490994 131.10725921491436 H 0.0 **** 0.06
23684 H 100.49064290953146 122.78985627528826 130.27833108927882 H 0.0 **** 0.06
23685 H 98.92312422890848 123.50607344792078 130.72502635771696 H 0.0 **** 0.06
23686 C 0.08396804853703088 62.13689624141709 120.39996629681815 C 0.0 **** -0.24
23687 H -0.3464159368843127 62.20017242922141 119.40040217325489 H 0.0 **** 0.06
23688 H 0.9813749335042985 62.75343589321146 120.44775139033976 H 0.0 **** 0.06
23689 H 0.34185584153217974 61.1004325327568 120.6184258068455 H 0.0 **** 0.06
23690 H -0.6420794798067107 62.49249468602672 121.13071550416129 H 0.0 **** 0.06
23691 C 64.24915170659442 114.7802055347995 198.94869399479853 C 0.0 **** -0.24
23692 H 65.05858494674041 114.3742504723478 199.55585872596708 H 0.0 **** 0.06
23693 H 63.726166234662415 115.55333465518527 199.51074401121386 H 0.0 **** 0.06
23694 H 63.55263243243803 113.98179099338194 198.6925557401725 H 0.0 **** 0.06
23695 H 64.66042455503892 115.20959771141361 198.0352424738521 H 0.0 **** 0.06
23696 C 1.9584797309362685 164.32872271089107 59.13409513490032 C 0.0 **** -0.24
23697 H 1.9996277260840074 165.06619672584077 58.33154505203197 H 0.0 **** 0.06
23698 H 1.5963477408552649 163.38085846183873 58.73686918693619 H 0.0 **** 0.06
23699 H 1.2820572280853924 164.6791823814413 59.913625312554046 H 0.0 **** 0.06
23700 H 2.9553316243658045 164.19152579689148 59.553140469456224 H 0.0 **** 0.06
23701 C 131.3658775174784 135.77496116577979 2.197592807264101 C 0.0 **** -0.24
23702 H 130.71023737006243 136.21019193367937 1.4435624015846713 H 0.0 **** 0.06
23703 H 132.16214340708393 135.21447240849776 1.7066307998341586 H 0.0 **** 0.06
23704 H 130.7898761651736 135.1043467379829 2.8358258600865156 H 0.0 **** 0.06
23705 H 131.80124739792745 136.56975347037587 2.8034392780660085 H 0.0 **** 0.06
23706 C 90.59722966789334 56.917311943827386 161.62737710561981 C 0.0 **** -0.24
23707 H 90.73264738906337 56.74051254103027 160.5599879020568 H 0.0 **** 0.06
23708 H 89.54565093381609 57.12275195274 161.82984258627084 H 0.0 **** 0.06
23709 H 91.20040005023017 57.771149115447045 161.93309465164506 H 0.0 **** 0.06
23710 H 90.9088729102858 56.03306996824686 162.18392388211143 H 0.0 **** 0.06
23711 C 77.17958619367539 147.4909129579088 41.09017959421914 C 0.0 **** -0.24
23712 H 77.48189531619124 146.45188233543658 40.95493438167671 H 0.0 **** 0.06
23713 H 77.44761213180743 148.06542300375074 40.2039206197141 H 0.0 **** 0.06
23714 H 77.69012590116688 147.9060270899041 41.9600739447458 H 0.0 **** 0.06
23715 H 76.10211340610152 147.53927512966104 41.244306658003666 H 0.0 **** 0.06
23716 C 32.28411941333155 83.09267819689427 144.92157032380013 C 0.0 **** -0.24
23717 H 31.649985122369813 83.97055071312613 144.79896843778124 H 0.0 **** 0.06
23718 H 33.06151109068293 83.09666759032001 144.15711237135548 H 0.0 **** 0.06
23719 H 31.6795920712985 82.1909614958146 144.82055854201477 H 0.0 **** 0.06
23720 H 32.74462801938043 83.11239575064633 145.90900827675938 H 0.0 **** 0.06
23721 C 39.28806174611066 100.33675493468351 181.7705320477304 C 0.0 **** -0.24
23722 H 39.065830445045975 101.05591880997602 180.9822508486697 H 0.0 **** 0.06
23723 H 39.273147358157246 99.32785779474116 181.35581787240534 H 0.0 **** 0.06
23724 H 38.53915891517869 100.41765020936165 182.55777544474563 H 0.0 **** 0.06
23725 H 40.27517034202384 100.54457225493425 182.18432581112575 H 0.0 **** 0.06
23726 C 106.11643530586238 65.75195908440696 136.3063215750716 C 0.0 **** -0.24
23727 H 106.7330483422405 65.40833480698075 135.47583653646927 H 0.0 **** 0.06
23728 H 106.75570085268322 66.0233397257636 137.14580937586686 H 0.0 **** 0.06
23729 H 105.43862960060252 64.95396227652509 136.60871567775803 H 0.0 **** 0.06
23730 H 105.53827112298922 66.62086008922131 135.9931365059839 H 0.0 **** 0.06
23731 C 18.78793166169615 114.21028890947736 24.521059779998666 C 0.0 **** -0.24
23732 H 17.999630322362435 113.97650029997635 23.80529405493712 H 0.0 **** 0.06
23733 H 19.294159547249933 115.12729198954514 24.21776720843019 H 0.0 **** 0.06
23734 H 19.506470039392752 113.39087167314645 24.551220794468435 H 0.0 **** 0.06
23735 H 18.351169343620313 114.34708702307222 25.51070347979737 H 0.0 **** 0.06
23736 C 53.34271499630785 0.6243017261152914 119.30266362288415 C 0.0 **** -0.24
23737 H 54.388782761699076 0.5744681662781161 119.60560839972945 H 0.0 **** 0.06
23738 H 53.142539801792395 -0.1520207839746348 118.56316043371373 H 0.0 **** 0.06
23739 H 53.13671217385732 1.6018218641244815 118.86821699839572 H 0.0 **** 0.06
23740 H 52.70518425686811 0.471169870822834 120.17311170410193 H 0.0 **** 0.06
23741 C 119.86084164151342 10.104072357504705 198.0972379226448 C 0.0 **** -0.24
23742 H 120.01268075895717 10.00919233813822 199.17235714540038 H 0.0 **** 0.06
23743 H 118.80204722425106 9.979052497984917 197.86724850815378 H 0.0 **** 0.06
23744 H 120.43776985543062 9.337420987231248 197.5799960105873 H 0.0 **** 0.06
23745 H 120.18999356181058 11.090156479825623 197.76947611885848 H 0.0 **** 0.06
23746 C 15.813902917138876 119.36434894547949 23.76524886342976 C 0.0 **** -0.24
23747 H 14.97963603820375 119.88894729665614 24.230660531451292 H 0.0 **** 0.06
23748 H 15.523829222412473 119.03504708069727 22.76651753927574 H 0.0 **** 0.06
23749 H 16.08239499379721 118.49848395597624 24.36992604411809 H 0.0 **** 0.06
23750 H 16.669295641826864 120.03645161646114 23.69203695751203 H 0.0 **** 0.06
23751 C 119.49790900684849 198.62370027731492 38.995394605312825 C 0.0 **** -0.24
23752 H 119.19691519302535 199.21406230157424 39.86132306953962 H 0.0 **** 0.06
23753 H 120.01412679875034 199.2640187745351 38.280314826657445 H 0.0 **** 0.06
23754 H 118.61370007002336 198.19196373093496 38.52622640727708 H 0.0 **** 0.06
23755 H 120.16582912716319 197.82355212679738 39.31624715453731 H 0.0 **** 0.06
23756 C 103.06256407365493 87.9390156196481 104.81828012174725 C 0.0 **** -0.24
23757 H 102.8661692245579 88.923733314924 104.39301570101648 H 0.0 **** 0.06
23758 H 103.47427202230568 87.28670051283069 104.04777362491276 H 0.0 **** 0.06
23759 H 102.13212421002663 87.51460243866325 105.19530902250875 H 0.0 **** 0.06
23760 H 103.77729439380948 88.03284262245086 105.63628486492934 H 0.0 **** 0.06
23761 C 116.88678699607578 121.2008845960971 19.949636413262695 C 0.0 **** -0.24
23762 H 116.78987021871842 120.18470678835826 19.569128259027735 H 0.0 **** 0.06
23763 H 116.05978942648227 121.80710302308984 19.579801418718972 H 0.0 **** 0.06
23764 H 117.83112043213725 121.62783205917779 19.610443357252578 H 0.0 **** 0.06
23765 H 116.86636790696514 121.18389651376262 21.03917261805148 H 0.0 **** 0.06
23766 C 79.57319227485846 3.347386208781643 138.6384231799482 C 0.0 **** -0.24
23767 H 79.00026424591283 3.2783852967605753 137.7140985537528 H 0.0 **** 0.06
23768 H 80.63918348695654 3.3435194124792815 138.40590110352275 H 0.0 **** 0.06
23769 H 79.33709805795195 2.495792783292643 139.27713740254987 H 0.0 **** 0.06
23770 H 79.31791249842433 4.272539173482045 139.1557382896302 H 0.0 **** 0.06
23771 C 79.2814459840175 131.65410737459652 50.94425855741281 C 0.0 **** -0.24
23772 H 79.34402968242765 130.6007037763166 50.669429803691116 H 0.0 **** 0.06
23773 H 79.36243350778489 131.7529407205549 52.02657859571252 H 0.0 **** 0.06
23774 H 78.32438435223774 132.05787294467302 50.61368166248718 H 0.0 **** 0.06
23775 H 80.09244086719085 132.20235661330358 50.46622955625787 H 0.0 **** 0.06
23776 C 134.04593645781208 25.228552612980707 159.94497375096802 C 0.0 **** -0.24
23777 H 132.99611232988806 25.26427601475217 160.23593735790388 H 0.0 **** 0.06
23778 H 134.25713335151556 24.27318852680216 159.4642191100376 H 0.0 **** 0.06
23779 H 134.67184682771284 25.33691040974054 160.83085550558457 H 0.0 **** 0.06
23780 H 134.2579874286839 26.041053684635642 159.24915257973396 H 0.0 **** 0.06
23781 C 102.19919258089658 99.86782376655106 95.89000669101821 C 0.0 **** -0.24
23782 H 103.16214973277286 99.69688949128079 95.4073497642762 H 0.0 **** 0.06
23783 H 102.3597876130278 100.15136677655028 96.93005489895512 H 0.0 **** 0.06
23784 H 101.60656940445372 98.95359227860752 95.8495313703763 H 0.0 **** 0.06
23785 H 101.67079290234986 100.66762997417584 95.37194928636967 H 0.0 **** 0.06
23786 C 110.66546317677049 120.81621687945761 36.8910813810252 C 0.0 **** -0.24
23787 H 111.05664802919108 121.67743297757437 37.432323393800175 H 0.0 **** 0.06
23788 H 111.00988313187008 119.89970673749659 37.37149658157311 H 0.0 **** 0.06
23789 H 111.02114870326054 120.84363456399385 35.861738031477785 H 0.0 **** 0.06
23790 H 109.57640704527847 120.84561877102561 36.900404986821584 H 0.0 **** 0.06
23791 C 8.98441925424001 19.496496699872836 4.790740208529712 C 0.0 **** -0.24
23792 H 9.687340747731412 20.15069125848248 5.307703033233331 H 0.0 **** 0.06
23793 H 8.016373209673475 19.99126624102206 4.715131817427185 H 0.0 **** 0.06
23794 H 8.875926717068666 18.56706300210419 5.35063669429271 H 0.0 **** 0.06
23795 H 9.360712438865846 19.276680702244903 3.792612958607677 H 0.0 **** 0.06
23796 C 145.76135304559395 162.88271753558877 88.67335511391599 C 0.0 **** -0.24
23797 H 146.22398610308016 163.2693454804517 87.76449637919876 H 0.0 **** 0.06
23798 H 144.76896613580888 163.31977470686502 88.78897931905414 H 0.0 **** 0.06
23799 H 146.3772291839391 163.1441099280981 89.53325642171455 H 0.0 **** 0.06
23800 H 145.67594753236946 161.79885499561124 88.60322273466869 H 0.0 **** 0.06
23801 C 151.6640708973897 81.96869883651306 198.59856805274103 C 0.0 **** -0.24
23802 H 152.03048431794878 82.28615044142668 199.5739240535474 H 0.0 **** 0.06
23803 H 150.60013493610325 82.19434095641537 198.51950093905953 H 0.0 **** 0.06
23804 H 151.81775811787872 80.89561735857598 198.48338529128273 H 0.0 **** 0.06
23805 H 152.2069715640514 82.49843003350912 197.8160264248988 H 0.0 **** 0.06
23806 C 55.05258069603585 56.37084667602008 179.07796272166365 C 0.0 **** -0.24
23807 H 55.434022135240696 56.39996198468879 180.09884538837952 H 0.0 **** 0.06
23808 H 54.204981137809966 57.051680174814805 178.98773821652475 H 0.0 **** 0.06
23809 H 54.731143982031426 55.35737208514939 178.839177543664 H 0.0 **** 0.06
23810 H 55.83870948062986 56.67555245376872 178.38729739012024 H 0.0 **** 0.06
23811 C 125.36327056834693 43.62103437844979 3.8762898607116796 C 0.0 **** -0.24
23812 H 126.22645347621116 43.18707673414866 3.3726057422104248 H 0.0 **** 0.06
23813 H 125.51871910175333 43.589446162688944 4.9547098259807925 H 0.0 **** 0.06
23814 H 124.46909454048497 43.05280875199588 3.620456817095672 H 0.0 **** 0.06
23815 H 125.23887725340032 44.65579178442738 3.5572317249722047 H 0.0 **** 0.06
23816 C 28.86129715039175 119.49355938534404 75.37570711138387 C 0.0 **** -0.24
23817 H 29.851303094553316 119.04504900670636 75.29667331784363 H 0.0 **** 0.06
23818 H 28.231480191589696 118.87424437456735 76.01407000979722 H 0.0 **** 0.06
23819 H 28.41546644746478 119.56411482847409 74.38329156961098 H 0.0 **** 0.06
23820 H 28.947321439198305 120.49125211973319 75.80663137401939 H 0.0 **** 0.06
23821 C 190.02151784217014 62.682300572681996 90.96024296433825 C 0.0 **** -0.24
23822 H 190.3982516228745 61.66901516519465 91.0996453456824 H 0.0 **** 0.06
23823 H 189.04925646288203 62.7774612665131 91.44269598127633 H 0.0 **** 0.06
23824 H 189.9201007417492 62.88767267725464 89.89372076939358 H 0.0 **** 0.06
23825 H 190.7194167103018 63.39297676752176 91.40147778887814 H 0.0 **** 0.06
23826 C 51.81906983833727 33.700202332337824 54.50124094509448 C 0.0 **** -0.24
23827 H 51.808294978504705 34.771330736807926 54.7059445174404 H 0.0 **** 0.06
23828 H 52.00857625671574 33.53540435616026 53.44006817423519 H 0.0 **** 0.06
23829 H 50.85525874490173 33.26916447918758 54.769450185273115 H 0.0 **** 0.06
23830 H 52.60640735083382 33.226809672549535 55.088364208684595 H 0.0 **** 0.06
23831 C 184.18062619288236 180.16430124196492 172.9360042527684 C 0.0 **** -0.24
23832 H 184.60121604563378 181.1442570372113 172.70801407546693 H 0.0 **** 0.06
23833 H 183.78595121360797 179.71804356332717 172.0228660151397 H 0.0 **** 0.06
23834 H 183.37783948232382 180.2746504862424 173.66403117049958 H 0.0 **** 0.06
23835 H 184.95987747537453 179.5228213359165 173.34778411543846 H 0.0 **** 0.06
23836 C 177.32401694017628 173.4944997750954 24.669240274127944 C 0.0 **** -0.24
23837 H 178.0654793718365 174.29307677964388 24.630266793205635 H 0.0 **** 0.06
23838 H 177.79255907046056 172.55198573197117 24.383735001728027 H 0.0 **** 0.06
23839 H 176.51106190172766 173.72016540425878 23.98021576178391 H 0.0 **** 0.06
23840 H 176.93149501477583 173.41381836267396 25.682107340970816 H 0.0 **** 0.06
23841 C 193.03679715939626 143.59437288361687 9.024177535079161 C 0.0 **** -0.24
23842 H 192.65302941784495 144.4035750155985 8.403706834598069 H 0.0 **** 0.06
23843 H 193.8724062306828 143.95865053272408 9.62220259048425 H 0.0 **** 0.06
23844 H 193.37559193835915 142.77771772698154 8.386827449692817 H 0.0 **** 0.06
23845 H 192.24723347379768 143.2362653692845 9.684425114082813 H 0.0 **** 0.06
23846 C 5.037685850712464 198.73554115883513 25.833524188033493 C 0.0 **** -0.24
23847 H 5.698628431771802 198.05933148687154 26.376212936322702 H 0.0 **** 0.06
23848 H 5.631106337409072 199.38186891900378 25.187735360773303 H 0.0 **** 0.06
23849 H 4.478981394975662 199.3440239470375 26.544146939195173 H 0.0 **** 0.06
23850 H 4.342200166740042 198.1539684777635 25.2282684025987 H 0.0 **** 0.06
23851 C 2.66794938538888 21.850998424943683 155.419672207304 C 0.0 **** -0.24
23852 H 3.208699610419785 21.927444120375498 156.36318741130805 H 0.0 **** 0.06
23853 H 3.136863034847238 22.498407573659236 154.6793128045295 H 0.0 **** 0.06
23854 H 1.6328354639848328 22.158495943232793 155.56870284497657 H 0.0 **** 0.06
23855 H 2.6935029139583264 20.818847044956854 155.06931632814388 H 0.0 **** 0.06
23856 C 128.83083998316533 124.69055909627838 196.98468779270843 C 0.0 **** -0.24
23857 H 127.78795466009308 124.50168927944208 196.72984454631148 H 0.0 **** 0.06
23858 H 128.9880601020309 124.4850413655443 198.04296608933566 H 0.0 **** 0.06
23859 H 129.07245946054547 125.73257694225609 196.77572963043093 H 0.0 **** 0.06
23860 H 129.47254833015774 124.04135971453343 196.3879581477765 H 0.0 **** 0.06
23861 C 138.7927908706093 7.919606717500223 139.17090137691378 C 0.0 **** -0.24
23862 H 139.53504020208655 8.712363824954792 139.26831183730593 H 0.0 **** 0.06
23863 H 139.1436952900701 7.180508162807961 138.4501523817736 H 0.0 **** 0.06
23864 H 137.85079452551963 8.34571286526348 138.82603022159947 H 0.0 **** 0.06
23865 H 138.64292516732996 7.441922812205817 140.13906718783687 H 0.0 **** 0.06
23866 C 76.92411580958884 38.85657685786583 13.989490121637914 C 0.0 **** -0.24
23867 H 76.09280559415961 38.162369358254466 14.1070483107994 H 0.0 **** 0.06
23868 H 77.53502902151824 38.55089060372586 13.139393262298256 H 0.0 **** 0.06
23869 H 77.53222647136671 38.8519907518253 14.894542656633433 H 0.0 **** 0.06
23870 H 76.53744988630909 39.860343302534886 13.817603419852958 H 0.0 **** 0.06
23871 C 141.88964783169914 176.96580173508664 189.3961853618743 C 0.0 **** -0.24
23872 H 142.60326584184673 176.14475316251537 189.3399428021773 H 0.0 **** 0.06
23873 H 141.74654862876625 177.39222622399518 188.4034172865304 H 0.0 **** 0.06
23874 H 142.2708595569191 177.73252294305917 190.06953212188904 H 0.0 **** 0.06
23875 H 140.93681875872704 176.5926126669351 189.7726244350586 H 0.0 **** 0.06
23876 C 43.7701801232252 37.63920768629549 89.78445213720227 C 0.0 **** -0.24
23877 H 43.49130780454709 38.41839037084725 89.07535464889258 H 0.0 **** 0.06
23878 H 42.918486701341635 36.97847425785602 89.95165373110649 H 0.0 **** 0.06
23879 H 44.067058990373766 38.09625262071651 90.72745187686903 H 0.0 **** 0.06
23880 H 44.603831322633596 37.06225354451425 89.38092601147557 H 0.0 **** 0.06
23881 C 16.115870276824523 142.32995127453992 12.613118298772086 C 0.0 **** -0.24
23882 H 16.48565820349185 143.30829609572106 12.918167405853225 H 0.0 **** 0.06
23883 H 15.175224239144313 142.1224144494754 13.122287386174584 H 0.0 **** 0.06
23884 H 16.84816031465573 141.56695900347975 12.87734127216639 H 0.0 **** 0.06
23885 H 15.956501915755098 142.32193560077178 11.535514880854613 H 0.0 **** 0.06
23886 C 21.83489247019955 100.72430340824513 101.64461589266128 C 0.0 **** -0.24
23887 H 22.12403594495757 100.8877974555914 100.60645577495055 H 0.0 **** 0.06
23888 H 22.673634498620714 100.29201846375116 102.19198072452605 H 0.0 **** 0.06
23889 H 20.985798302224822 100.04218075384111 101.68227822485863 H 0.0 **** 0.06
23890 H 21.557317414426592 101.67571671995 102.09826937235877 H 0.0 **** 0.06
23891 C 76.10086924450066 114.9007284952018 198.74971567497687 C 0.0 **** -0.24
23892 H 76.64602462020079 115.06021035970139 199.67963116456912 H 0.0 **** 0.06
23893 H 76.2852483106991 115.73618304541964 198.07325889985316 H 0.0 **** 0.06
23894 H 75.03350994770857 114.83357113867675 198.96163008152735 H 0.0 **** 0.06
23895 H 76.4390686360067 113.97461980312104 198.28460649377905 H 0.0 **** 0.06
23896 C 44.777352121317676 94.55528021528454 48.39093031688532 C 0.0 **** -0.24
23897 H 43.789845144138894 94.39426921159173 48.822026691140366 H 0.0 **** 0.06
23898 H 45.54035713399256 94.25634887541858 49.110254378512366 H 0.0 **** 0.06
23899 H 44.90001455616866 95.61058288953757 48.14809319865259 H 0.0 **** 0.06
23900 H 44.87840974752697 93.95980196398062 47.4839591620829 H 0.0 **** 0.06
23901 C 98.04870956543792 1.109542797608377 31.215095018413024 C 0.0 **** -0.24
23902 H 98.0658981430471 1.0823089621302202 32.3051177598191 H 0.0 **** 0.06
23903 H 98.46816927457533 2.053873535126314 30.86922267732143 H 0.0 **** 0.06
23904 H 97.02000612863915 1.0187040000802625 30.86657065619039 H 0.0 **** 0.06
23905 H 98.63969562922941 0.28335070864758194 30.821671893441646 H 0.0 **** 0.06
23906 C 158.97500643074915 148.66094553911407 43.80109003233753 C 0.0 **** -0.24
23907 H 159.7229212811908 149.16081945409573 43.18553651791224 H 0.0 **** 0.06
23908 H 157.98042611505036 148.99080105965322 43.5029491475765 H 0.0 **** 0.06
23909 H 159.14253039013352 148.9108326068245 44.84888718107702 H 0.0 **** 0.06
23910 H 159.0570958279523 147.581882953883 43.66692978405244 H 0.0 **** 0.06
23911 C 189.60128596245528 49.18723466015382 89.06890083951868 C 0.0 **** -0.24
23912 H 188.6926402537831 49.38850924132663 89.63807062496386 H 0.0 **** 0.06
23913 H 189.41966162468145 49.389818729794456 88.01382598069637 H 0.0 **** 0.06
23914 H 189.88527381896097 48.14370481779281 89.19628607685408 H 0.0 **** 0.06
23915 H 190.40481938045593 49.829471340681266 89.4300404032314 H 0.0 **** 0.06
23916 C 87.02705352068415 62.492102169994325 2.596351837765411 C 0.0 **** -0.24
23917 H 87.44490560423645 61.88175663533775 1.7953951230477685 H 0.0 **** 0.06
23918 H 87.55007395231314 62.276871829687764 3.528100843398647 H 0.0 **** 0.06
23919 H 85.96757452002998 62.26226354454502 2.7127526640969677 H 0.0 **** 0.06
23920 H 87.14522623538107 63.54705701486057 2.348383748706169 H 0.0 **** 0.06
23921 C 136.01290708240626 109.4438783618092 8.316357912698265 C 0.0 **** -0.24
23922 H 136.10369621321803 108.79951316795763 7.441035374300448 H 0.0 **** 0.06
23923 H 136.92298208686066 109.37511888757149 8.913063303306174 H 0.0 **** 0.06
23924 H 135.16073415302395 109.12407721767681 8.91546991720108 H 0.0 **** 0.06
23925 H 135.86606779551738 110.47479945420253 7.995120312841138 H 0.0 **** 0.06
23926 C 28.1995519274692 15.072702753348267 34.34789596013957 C 0.0 **** -0.24
23927 H 28.220999809955515 14.156882415977748 34.93915292187586 H 0.0 **** 0.06
23928 H 29.169557830024473 15.22117688863895 33.872494360339374 H 0.0 **** 0.06
23929 H 27.980579866675072 15.918988520759171 34.9993008472095 H 0.0 **** 0.06
23930 H 27.427900303007107 14.99277142593138 33.582715968812636 H 0.0 **** 0.06
23931 C 186.09633505536172 58.05367579743627 138.675944135544 C 0.0 **** -0.24
23932 H 186.34377508851867 58.65117403539233 137.79826710064182 H 0.0 **** 0.06
23933 H 185.62245384504288 57.12366018460122 138.35970329227 H 0.0 **** 0.06
23934 H 185.41058073280607 58.61241799573591 139.31303035593237 H 0.0 **** 0.06
23935 H 187.00687417887747 57.82906931048463 139.23086854413424 H 0.0 **** 0.06
23936 C 44.50152358609142 82.00163731269993 67.2680213712606 C 0.0 **** -0.24
23937 H 43.57498539024226 81.42839327931017 67.2722534485915 H 0.0 **** 0.06
23938 H 44.8054779912851 82.20786363346326 68.29395367532577 H 0.0 **** 0.06
23939 H 44.34404074133235 82.94241821968137 66.73934931008388 H 0.0 **** 0.06
23940 H 45.281811962561875 81.42878135825276 66.76546707651838 H 0.0 **** 0.06
23941 C 116.10369485929743 121.65694653304371 131.34583760192288 C 0.0 **** -0.24
23942 H 115.91718195545235 121.24750571089825 130.35318367156208 H 0.0 **** 0.06
23943 H 115.46616691140048 122.52626475833324 131.50624837627066 H 0.0 **** 0.06
23944 H 117.14984845729953 121.95303989708637 131.4243873015169 H 0.0 **** 0.06
23945 H 115.88277260158566 120.89927072287244 132.09870906471545 H 0.0 **** 0.06
23946 C 17.230495450324725 33.596019281006434 197.7286244529618 C 0.0 **** -0.24
23947 H 16.583789208698818 33.10840288644772 198.4591400274901 H 0.0 **** 0.06
23948 H 17.10234193332201 33.11917890221616 196.75652279868007 H 0.0 **** 0.06
23949 H 18.26892652270925 33.50377153958786 198.0452471349522 H 0.0 **** 0.06
23950 H 16.964738097737893 34.649547533939796 197.65465224767058 H 0.0 **** 0.06
23951 C 95.09991294877983 151.06724220703543 61.21757106716723 C 0.0 **** -0.24
23952 H 94.25008652603194 150.39614993675505 61.3407615318817 H 0.0 **** 0.06
23953 H 95.2384775455487 151.64779002714343 62.129772124341 H 0.0 **** 0.06
23954 H 94.91155681887682 151.7423798579519 60.381914537494026 H 0.0 **** 0.06
23955 H 95.9977942452308 150.4832418521512 61.01704069185337 H 0.0 **** 0.06
23956 C 6.103613734415006 41.41074197076324 87.26556096273157 C 0.0 **** -0.24
23957 H 6.667266097126053 42.06118782120814 86.59573716420795 H 0.0 **** 0.06
23958 H 5.128141778295088 41.85456680507252 87.4668683945653 H 0.0 **** 0.06
23959 H 6.649631467577933 41.292119198744274 88.20069353334091 H 0.0 **** 0.06
23960 H 5.970514670458805 40.436313448619615 86.79624192046282 H 0.0 **** 0.06
23961 C 66.5841380149714 106.9309141812931 93.64726978255175 C 0.0 **** -0.24
23962 H 67.6531391546963 106.72226522847984 93.67161796322637 H 0.0 **** 0.06
23963 H 66.27255614994772 107.34122554235799 94.6075410978458 H 0.0 **** 0.06
23964 H 66.03873287885231 106.00701621124537 93.45213525709539 H 0.0 **** 0.06
23965 H 66.3721371244934 107.6517375345924 92.85771041525351 H 0.0 **** 0.06
23966 C 32.95213495955073 45.9305687784899 127.12356264937597 C 0.0 **** -0.24
23967 H 32.59011522242011 45.46104497399163 126.20922858753829 H 0.0 **** 0.06
23968 H 32.478752455343425 45.45918021117309 127.98537731944478 H 0.0 **** 0.06
23969 H 32.70716205850107 46.9926958851793 127.10963519365785 H 0.0 **** 0.06
23970 H 34.03305315316038 45.80823879494008 127.19068873098723 H 0.0 **** 0.06
23971 C 190.45047596304417 39.09783640575057 94.0763111536395 C 0.0 **** -0.24
23972 H 189.7547051276826 39.688059140311424 93.47928538548445 H 0.0 **** 0.06
23973 H 191.44660600210398 39.15798065383967 93.63750902928945 H 0.0 **** 0.06
23974 H 190.12303577343002 38.05879354093298 94.09398907277148 H 0.0 **** 0.06
23975 H 190.47621553742738 39.488217402431474 95.0939195481352 H 0.0 **** 0.06
23976 C 4.649185268521947 114.96196891424276 56.38858297194827 C 0.0 **** -0.24
23977 H 3.9907938239100744 115.67011360899758 56.891271214674475 H 0.0 **** 0.06
23978 H 4.0571373415142205 114.3034915668693 55.75243398585155 H 0.0 **** 0.06
23979 H 5.180069711236939 114.36736919277794 57.13247313606121 H 0.0 **** 0.06
23980 H 5.370110198751199 115.50657509876481 55.77802416815575 H 0.0 **** 0.06
23981 C 105.38391496655689 127.9325022816256 23.30703021937927 C 0.0 **** -0.24
23982 H 104.46252565033643 127.50115213264183 22.91437963310858 H 0.0 **** 0.06
23983 H 105.45985345390105 127.71929368310941 24.373612676373455 H 0.0 **** 0.06
23984 H 105.37514893832841 129.01097427400322 23.150467159097047 H 0.0 **** 0.06
23985 H 106.23753108404034 127.49701553229875 22.787178791326028 H 0.0 **** 0.06
23986 C 0.310257101752228 145.54827273056117 85.79021311556164 C 0.0 **** -0.24
23987 H -0.3322479640078768 146.141634248822 85.13945890906018 H 0.0 **** 0.06
23988 H 0.4852318372407467 146.08918782817784 86.72029181367094 H 0.0 **** 0.06
23989 H 1.2623692678595262 145.36520424059333 85.291977190414 H 0.0 **** 0.06
23990 H -0.17432473408337046 144.59706460465148 86.00912454910144 H 0.0 **** 0.06
23991 C 137.04716914298672 76.0794192796786 185.86313305345945 C 0.0 **** -0.24
23992 H 137.52055799246864 75.79477039629263 184.92284654512792 H 0.0 **** 0.06
23993 H 136.54629839351355 77.04015961817794 185.7412757989285 H 0.0 **** 0.06
23994 H 137.8061605921506 76.16142720870981 186.64120140763393 H 0.0 **** 0.06
23995 H 136.31730872703508 75.32107875405285 186.14571771787377 H 0.0 **** 0.06
23996 C 88.03255751101025 27.923995167462067 46.4568346623944 C 0.0 **** -0.24
23997 H 87.25160076457138 27.802565001039625 45.70527695540048 H 0.0 **** 0.06
23998 H 89.00904383238392 27.828885364770713 45.98334628557768 H 0.0 **** 0.06
23999 H 87.92239671264588 27.155777082400164 47.22227718581733 H 0.0 **** 0.06
24000 H 87.94391619125267 28.908806031440633 46.91462494540474 H 0.0 **** 0.06
24001 C 79.47503430465292 59.13492151039844 83.03386371747524 C 0.0 **** -0.24
24002 H 79.74944017177796 58.43643988229002 82.24347994180056 H 0.0 **** 0.06
24003 H 80.13770503024463 59.9991374801113 83.00104714626173 H 0.0 **** 0.06
24004 H 79.56779133686246 58.64212150958588 84.00228614614548 H 0.0 **** 0.06
24005 H 78.44475836842818 59.460688058157416 82.88898326911072 H 0.0 **** 0.06
24006 C 12.316566260478425 51.45121634976594 151.41083852243162 C 0.0 **** -0.24
24007 H 12.120701125342919 52.287695205419354 152.0829067410881 H 0.0 **** 0.06
24008 H 11.436163251451035 51.26652644659522 150.79617532967177 H 0.0 **** 0.06
24009 H 12.54563109847166 50.560970227354986 151.99684349726567 H 0.0 **** 0.06
24010 H 13.16493547982509 51.692508275082574 150.76957447393426 H 0.0 **** 0.06
24011 C 196.69940675892857 111.43191922368607 29.312477974183878 C 0.0 **** -0.24
24012 H 197.47332535735336 111.29087361991088 30.066114355408445 H 0.0 **** 0.06
24013 H 195.8259388910517 111.89637743719274 29.771860351468064 H 0.0 **** 0.06
24014 H 196.41931725909714 110.46500946291661 28.89402358375493 H 0.0 **** 0.06
24015 H 197.07794383266454 112.07551767169889 28.518794542581276 H 0.0 **** 0.06
24016 C 169.39951995424013 82.73301296261474 127.58039538013384 C 0.0 **** -0.24
24017 H 168.94177139800294 83.58362096184166 128.08554285984985 H 0.0 **** 0.06
24018 H 170.47739553288605 82.88549560189651 127.51834716003606 H 0.0 **** 0.06
24019 H 168.98670085779565 82.64028844486069 126.57690288159321 H 0.0 **** 0.06
24020 H 169.19277399923524 81.82251530773158 128.14373260987892 H 0.0 **** 0.06
24021 C 32.68455833344251 185.9643403244722 156.83640596575248 C 0.0 **** -0.24
24022 H 31.963459504202646 186.701586498592 157.19024103013805 H 0.0 **** 0.06
24023 H 33.13911696231317 185.46231824463644 157.69173105752853 H 0.0 **** 0.06
24024 H 33.458660940545585 186.4649387203626 156.25525015991295 H 0.0 **** 0.06
24025 H 32.17752516769653 185.2306480161232 156.21143188472536 H 0.0 **** 0.06
24026 C 129.00085855787518 24.208200729512782 31.414130717812412 C 0.0 **** -0.24
24027 H 128.48844847018455 23.610087363084574 32.16681322582491 H 0.0 **** 0.06
24028 H 130.04177766334544 24.3460330331755 31.70674711340733 H 0.0 **** 0.06
24029 H 128.51555303233022 25.180863527501828 31.330498659757367 H 0.0 **** 0.06
24030 H 128.95802344917763 23.696602097377905 30.452964935867314 H 0.0 **** 0.06
24031 C 189.86032524584766 166.99819092986456 15.884668628803084 C 0.0 **** -0.24
24032 H 190.5956402621158 166.5566691003882 16.557265076467488 H 0.0 **** 0.06
24033 H 188.88940350311077 167.03121417137658 16.37842272335719 H 0.0 **** 0.06
24034 H 189.78796255119227 166.39311143889532 14.979767983554808 H 0.0 **** 0.06
24035 H 190.16999061682895 168.00951745492 15.620970501365832 H 0.0 **** 0.06
24036 C 94.5535628554278 104.3926522473767 181.22130499459772 C 0.0 **** -0.24
24037 H 95.56317260145678 104.80512194045377 181.22406624440947 H 0.0 **** 0.06
24038 H 94.23398887526926 104.20912859060641 182.24743521780803 H 0.0 **** 0.06
24039 H 94.54674024194523 103.45521861886797 180.6652516475854 H 0.0 **** 0.06
24040 H 93.87405838251655 105.10072161358534 180.7482002486501 H 0.0 **** 0.06
24041 C 182.4612693790569 68.15422800749481 132.77383240369193 C 0.0 **** -0.24
24042 H 182.08893222764243 68.92905679809103 133.44389812486438 H 0.0 **** 0.06
24043 H 183.50514943480653 68.35515712721461 132.53122651345862 H 0.0 **** 0.06
24044 H 181.86892913318076 68.15190329512879 131.85846017023414 H 0.0 **** 0.06
24045 H 182.38139052434138 67.1831306062427 133.26144994673814 H 0.0 **** 0.06
24046 C 11.65984120300481 157.17680304777417 194.76733618553982 C 0.0 **** -0.24
24047 H 12.400523307273943 156.38291933406373 194.85765411528325 H 0.0 **** 0.06
24048 H 10.711400347649793 156.83780277110586 195.18605503519882 H 0.0 **** 0.06
24049 H 11.522785768193366 157.42930639029956 193.71634021446187 H 0.0 **** 0.06
24050 H 12.003540563014958 158.057576358898 195.31119355710166 H 0.0 **** 0.06
24051 C 172.74030800440454 73.79678691216827 32.54319145860218 C 0.0 **** -0.24
24052 H 171.937991238034 74.32961238290503 33.05284770601436 H 0.0 **** 0.06
24053 H 172.35280421821182 72.86310575935453 32.13449594692655 H 0.0 **** 0.06
24054 H 173.5398020208284 73.58009481191803 33.25124902725631 H 0.0 **** 0.06
24055 H 173.12945463242704 74.41439041942196 31.73339549438775 H 0.0 **** 0.06
24056 C 192.16277378521727 36.90879987792374 67.50487984463182 C 0.0 **** -0.24
24057 H 191.55661158805884 37.18928368077684 68.36596514699106 H 0.0 **** 0.06
24058 H 191.564555617154 36.30465679235789 66.82143717857323 H 0.0 **** 0.06
24059 H 193.02502979920257 36.33224121842477 67.84098455669455 H 0.0 **** 0.06
24060 H 192.50409272713864 37.807269104070826 66.99226978077294 H 0.0 **** 0.06
24061 C 93.91021403506358 93.54307657950218 198.57489729654137 C 0.0 **** -0.24
24062 H 94.71591980080893 92.80945787689544 198.53138263909102 H 0.0 **** 0.06
24063 H 93.467073737681 93.65373230132269 197.58536272726425 H 0.0 **** 0.06
24064 H 94.309758012403 94.50183411763268 198.9051763785082 H 0.0 **** 0.06
24065 H 93.14935974080561 93.20382751276568 199.27836834239787 H 0.0 **** 0.06
24066 C 72.71158295163497 34.46967431057999 52.01174883076294 C 0.0 **** -0.24
24067 H 73.44163170890621 33.767041148533195 52.41359847293839 H 0.0 **** 0.06
24068 H 72.96293450848557 35.479862834586015 52.33450759101885 H 0.0 **** 0.06
24069 H 71.71780613338457 34.207908663974194 52.375157781911014 H 0.0 **** 0.06
24070 H 72.72374728945938 34.42179704936797 50.92246764671671 H 0.0 **** 0.06
24071 C 120.14493815502885 183.481132143149 106.70591041648515 C 0.0 **** -0.24
24072 H 119.4773090278378 184.2729155726878 106.36654921455579 H 0.0 **** 0.06
24073 H 121.15504355854341 183.8782033404609 106.80916365860975 H 0.0 **** 0.06
24074 H 120.145673810809 182.67009387156327 105.97820714825079 H 0.0 **** 0.06
24075 H 119.80139439967729 183.10545951659765 107.66917903175502 H 0.0 **** 0.06
24076 C 34.54551789626436 87.93000874094389 139.12543022182936 C 0.0 **** -0.24
24077 H 33.830420620499865 87.23114763257436 139.55853494760777 H 0.0 **** 0.06
24078 H 34.49709344703422 87.87150189004245 138.03716015120008 H 0.0 **** 0.06
24079 H 35.55158333302148 87.67412329413011 139.45878539556506 H 0.0 **** 0.06
24080 H 34.303174427069706 88.94317853397331 139.44584291127978 H 0.0 **** 0.06
24081 C 198.48691542605172 154.48939855357787 121.99903898427942 C 0.0 **** -0.24
24082 H 198.09999271185046 153.62008025917567 122.53208235031207 H 0.0 **** 0.06
24083 H 198.93928498173568 155.18041242214997 122.71139095689591 H 0.0 **** 0.06
24084 H 197.66989689277287 154.98762634650768 121.47724835280405 H 0.0 **** 0.06
24085 H 199.23690098912334 154.16850102909416 121.27667335787135 H 0.0 **** 0.06
24086 C 179.98887596531816 67.97870790695067 184.7528041185819 C 0.0 **** -0.24
24087 H 180.57212179854878 67.3028137268237 184.1260608899279 H 0.0 **** 0.06
24088 H 179.2638694621344 67.40364660351261 185.32972159353764 H 0.0 **** 0.06
24089 H 179.46478524501364 68.69652968768217 184.12321977021097 H 0.0 **** 0.06
24090 H 180.65549297314658 68.5097517486183 185.43242966931314 H 0.0 **** 0.06
24091 C 156.7240568776018 179.5274382344644 131.99046448512013 C 0.0 **** -0.24
24092 H 155.76850544982022 179.4332490193534 131.4758068170563 H 0.0 **** 0.06
24093 H 156.6979250748559 178.9488560637231 132.91403770363382 H 0.0 **** 0.06
24094 H 156.90820123123189 180.57650132456857 132.224370866164 H 0.0 **** 0.06
24095 H 157.52126128445028 179.15324037395595 131.34835252281476 H 0.0 **** 0.06
24096 C 147.66387632567768 142.12523350102362 72.96359997398713 C 0.0 **** -0.24
24097 H 148.48751995517185 142.7245264454865 73.35425310008006 H 0.0 **** 0.06
24098 H 147.3403938818524 141.41337404043668 73.72397286315191 H 0.0 **** 0.06
24099 H 147.99702348031622 141.58564806066488 72.07772629083125 H 0.0 **** 0.06
24100 H 146.83253101405288 142.7795173952539 72.70081442503248 H 0.0 **** 0.06
24101 C 65.93025770749988 80.35222419070956 87.26382224689365 C 0.0 **** -0.24
24102 H 66.41436865073427 81.07465827295542 86.60687151166297 H 0.0 **** 0.06
24103 H 64.85337863991813 80.52177158265889 87.25883773924784 H 0.0 **** 0.06
24104 H 66.3123192746089 80.46938449669307 88.27770246378998 H 0.0 **** 0.06
24105 H 66.13974827394925 79.34201308284054 86.91070339419286 H 0.0 **** 0.06
24106 C 72.41630843208914 48.90730363852059 70.16484730486746 C 0.0 **** -0.24
24107 H 71.75915474682824 49.75961315128626 69.99398420993481 H 0.0 **** 0.06
24108 H 72.81247670787894 48.95117097372918 71.17977491551608 H 0.0 **** 0.06
24109 H 73.23998944562113 48.93409134694713 69.45143389772699 H 0.0 **** 0.06
24110 H 71.85280558543332 47.98225754842444 70.0343214358686 H 0.0 **** 0.06
24111 C 88.56043920819502 117.83171309839358 187.63919999877868 C 0.0 **** -0.24
24112 H 87.54275302406757 117.62382708256735 187.30752857280723 H 0.0 **** 0.06
24113 H 88.87438110519861 118.80396920378195 187.2606168336062 H 0.0 **** 0.06
24114 H 89.23025029799328 117.06031669338054 187.25991071482406 H 0.0 **** 0.06
24115 H 88.59238409831033 117.83772619569947 188.7288857594351 H 0.0 **** 0.06
24116 C 138.255137851653 7.819592025984946 79.5560636477044 C 0.0 **** -0.24
24117 H 137.34680965792143 7.812893594610841 80.1574908487022 H 0.0 **** 0.06
24118 H 138.01696378037124 7.517997510261125 78.53538320218902 H 0.0 **** 0.06
24119 H 138.9778340457552 7.123930538088814 79.98160797062778 H 0.0 **** 0.06
24120 H 138.67852407344347 8.82450864634555 79.54882495689395 H 0.0 **** 0.06
24121 C 177.373889782981 114.27736294938796 1.0037300178149522 C 0.0 **** -0.24
24122 H 177.31039239457613 113.99546538076348 -0.04729734908899985 H 0.0 **** 0.06
24123 H 177.9738488201153 115.1821816791325 1.1012179835744078 H 0.0 **** 0.06
24124 H 177.8381208098511 113.47024881787846 1.5697158807558722 H 0.0 **** 0.06
24125 H 176.37127900171512 114.46212937451236 1.3902874995921337 H 0.0 **** 0.06
24126 C 120.82807569661051 39.72292478306129 174.98222916385376 C 0.0 **** -0.24
24127 H 121.28268853560618 39.28933340165548 175.87320860914318 H 0.0 **** 0.06
24128 H 121.59355450682804 40.22475513672282 174.39104970555516 H 0.0 **** 0.06
24129 H 120.06626122433215 40.44333258034963 175.27766437833975 H 0.0 **** 0.06
24130 H 120.36958025793169 38.93206118943712 174.38718931050946 H 0.0 **** 0.06
24131 C 106.24073105736474 33.25058839658658 95.44931490197845 C 0.0 **** -0.24
24132 H 105.2201193356668 33.52397511056935 95.18191801364316 H 0.0 **** 0.06
24133 H 106.32628357786089 32.16467283744237 95.49244091776703 H 0.0 **** 0.06
24134 H 106.48686940715791 33.67460489876282 96.42222577951668 H 0.0 **** 0.06
24135 H 106.92842249947637 33.640577414565286 94.69816328397698 H 0.0 **** 0.06
24136 C 163.55650961200053 32.58001950539092 134.40381011278194 C 0.0 **** -0.24
24137 H 162.68443093648273 33.21532238029701 134.2459185553857 H 0.0 **** 0.06
24138 H 163.24556933653696 31.648687751567778 134.8790869076163 H 0.0 **** 0.06
24139 H 164.27017584121933 33.09549928612732 135.04603731411066 H 0.0 **** 0.06
24140 H 164.02358342223988 32.35975363083904 133.44457518085648 H 0.0 **** 0.06
24141 C 46.01253230489729 18.908506832011255 53.72778696156783 C 0.0 **** -0.24
24142 H 45.65427247842061 19.929336294604084 53.59601526133808 H 0.0 **** 0.06
24143 H 47.07745353695998 18.92333774074534 53.957213355626095 H 0.0 **** 0.06
24144 H 45.84558792867142 18.344651890734994 52.809359561647696 H 0.0 **** 0.06
24145 H 45.4701544776631 18.436345116412866 54.547220485135725 H 0.0 **** 0.06
24146 C 22.323028688959866 100.61913106909094 123.69895932562642 C 0.0 **** -0.24
24147 H 22.608979506817008 100.21753228700982 122.72689593922283 H 0.0 **** 0.06
24148 H 21.504007371564867 101.32819030763801 123.57220052626516 H 0.0 **** 0.06
24149 H 23.176334705682734 101.12591087321522 124.1487478717562 H 0.0 **** 0.06
24150 H 22.000345361721585 99.80481775006132 124.348047902568 H 0.0 **** 0.06
24151 C 123.59320121068089 81.24079793940604 87.75949687905762 C 0.0 **** -0.24
24152 H 122.7659469079756 81.94188343491092 87.64991072951159 H 0.0 **** 0.06
24153 H 124.3004078314691 81.38219776940946 86.9417312753285 H 0.0 **** 0.06
24154 H 123.20973989350017 80.22082371256462 87.7366786188395 H 0.0 **** 0.06
24155 H 124.09607747784364 81.41808054847684 88.71041329419734 H 0.0 **** 0.06
24156 C 49.86271906418631 110.40888006391319 66.40551259683502 C 0.0 **** -0.24
24157 H 49.0272472231693 110.33085471620194 67.10036977995071 H 0.0 **** 0.06
24158 H 50.79948246233812 110.42168641160993 66.96325181004659 H 0.0 **** 0.06
24159 H 49.77019777128109 111.32849401890186 65.82838639774468 H 0.0 **** 0.06
24160 H 49.85403108717907 109.55365482618853 65.72949114558753 H 0.0 **** 0.06
24161 C 196.62019602434503 99.56878518260442 74.0835848283665 C 0.0 **** -0.24
24162 H 195.7460304345114 99.08571684641583 74.51885159961058 H 0.0 **** 0.06
24163 H 196.3156334984322 100.48717431961947 73.58123559439349 H 0.0 **** 0.06
24164 H 197.0863028813584 98.89697546478473 73.36336905113941 H 0.0 **** 0.06
24165 H 197.33416616025988 99.80641546860244 74.87225343879331 H 0.0 **** 0.06
24166 C 13.0379606578949 19.90845802492595 97.59200327966613 C 0.0 **** -0.24
24167 H 13.164983999487958 20.90985651936461 97.18121647458611 H 0.0 **** 0.06
24168 H 13.468875961366734 19.86794507616399 98.59290757427004 H 0.0 **** 0.06
24169 H 13.54069422932713 19.185118420661695 96.95028180724898 H 0.0 **** 0.06
24170 H 11.975166229685698 19.669929050576954 97.644335269012 H 0.0 **** 0.06
24171 C 18.625763445732332 117.66077599722533 17.85468486687641 C 0.0 **** -0.24
24172 H 19.585125870869547 117.1729712149245 18.02827611592943 H 0.0 **** 0.06
24173 H 18.361107873707624 117.57692202144952 16.800528509413937 H 0.0 **** 0.06
24174 H 18.699571254614625 118.71371507036426 18.12912689536897 H 0.0 **** 0.06
24175 H 17.859913148962335 117.17983578513198 18.461694321913342 H 0.0 **** 0.06
24176 C 51.74863135830849 150.0814058126165 79.96499238973061 C 0.0 **** -0.24
24177 H 52.17138321432272 150.18086386321608 78.96529461306159 H 0.0 **** 0.06
24178 H 52.55467495170092 149.99339874951966 80.69341751539767 H 0.0 **** 0.06
24179 H 51.12100702149222 149.19181625776562 80.00767466340338 H 0.0 **** 0.06
24180 H 51.147208082975766 150.9617534273388 80.19334479282924 H 0.0 **** 0.06
24181 C 195.11428192712498 164.84898825978883 118.31227440112139 C 0.0 **** -0.24
24182 H 194.16246174664596 165.11115648806 117.85015228559149 H 0.0 **** 0.06
24183 H 195.40435357549757 163.84458227053108 118.00381738589238 H 0.0 **** 0.06
24184 H 195.01188003533008 164.88072190802208 119.39679572471414 H 0.0 **** 0.06
24185 H 195.878416993262 165.56024281005114 117.99899298760079 H 0.0 **** 0.06
24186 C 165.23186676328686 75.06014983635822 103.15085502132058 C 0.0 **** -0.24
24187 H 166.09609679774894 74.50372330090966 103.51370849300116 H 0.0 **** 0.06
24188 H 164.33190906913597 74.46026497719046 103.28409906304364 H 0.0 **** 0.06
24189 H 165.36529567028052 75.28643479446043 102.09316956793668 H 0.0 **** 0.06
24190 H 165.1374008403664 75.98965758223689 103.71295664791353 H 0.0 **** 0.06
24191 C 84.64732703439711 195.53849346102436 8.722528248509882 C 0.0 **** -0.24
24192 H 83.7089655021118 195.73188244188975 9.242838762403487 H 0.0 **** 0.06
24193 H 84.60941487250352 195.98355071482808 7.72792209265905 H 0.0 **** 0.06
24194 H 84.79794219825769 194.46269830701743 8.633312001578659 H 0.0 **** 0.06
24195 H 85.47198431559633 195.9750540234861 9.28542691894571 H 0.0 **** 0.06
24196 C 69.2369898254085 61.51695038932908 65.16295347317819 C 0.0 **** -0.24
24197 H 70.12288463865406 61.942917022990486 64.69079088166725 H 0.0 **** 0.06
24198 H 69.05005654652689 60.52421699789737 64.75397787860446 H 0.0 **** 0.06
24199 H 68.37720345309387 62.15853917333507 64.9673443455576 H 0.0 **** 0.06
24200 H 69.39798583131568 61.44332673584577 66.23846196925037 H 0.0 **** 0.06
24201 C 109.38661444987201 31.017029678430504 20.011057567204702 C 0.0 **** -0.24
24202 H 108.49121816697473 30.719565961055196 19.46594794539554 H 0.0 **** 0.06
24203 H 110.08587125094871 31.49886413066747 19.327144425397094 H 0.0 **** 0.06
24204 H 109.85589002974146 30.136163506537287 20.44864971694666 H 0.0 **** 0.06
24205 H 109.11413471956325 31.714754290428573 20.80272974582023 H 0.0 **** 0.06
24206 C 159.65607488766634 92.68612689541433 43.01062531396113 C 0.0 **** -0.24
24207 H 158.91364864384653 93.47470288000869 43.13570082758042 H 0.0 **** 0.06
24208 H 160.30530933153875 92.65499276103557 43.88610232844863 H 0.0 **** 0.06
24209 H 160.25368564674545 92.8866041056354 42.121177193710594 H 0.0 **** 0.06
24210 H 159.14999802093752 91.72671004797272 42.89961082035282 H 0.0 **** 0.06
24211 C 99.57445928772052 109.03969251081978 80.75951219654957 C 0.0 **** -0.24
24212 H 100.40939279803962 109.5391979660057 80.26796360394428 H 0.0 **** 0.06
24213 H 99.56089070314528 107.98744988581859 80.47498444845547 H 0.0 **** 0.06
24214 H 98.64009206943871 109.5104205981464 80.45354707672072 H 0.0 **** 0.06
24215 H 99.68710394106802 109.12301399578485 81.8404813890142 H 0.0 **** 0.06
24216 C 33.81486512015664 151.2124846114889 187.53055302164984 C 0.0 **** -0.24
24217 H 33.630390620091504 151.4447534501988 186.48175131267357 H 0.0 **** 0.06
24218 H 33.18090284765387 150.38058475455077 187.83488033641666 H 0.0 **** 0.06
24219 H 33.58702177272147 152.08647095397072 188.1411142177571 H 0.0 **** 0.06
24220 H 34.861965962060026 150.93928552047248 187.66246880393044 H 0.0 **** 0.06
24221 C 20.02858914733355 10.029341300440052 167.58917815042355 C 0.0 **** -0.24
24222 H 19.13049218815081 10.072465181611918 168.205761377692 H 0.0 **** 0.06
24223 H 20.74636271590427 9.343129369981476 168.03994749113303 H 0.0 **** 0.06
24224 H 20.4704931507367 11.023790432717234 167.52101310300196 H 0.0 **** 0.06
24225 H 19.767955998971274 9.679039902466016 166.59098029833285 H 0.0 **** 0.06
24226 C 146.75454373348964 98.6567571224503 83.13075824375784 C 0.0 **** -0.24
24227 H 147.46717661005783 98.59283107446927 82.30901223285952 H 0.0 **** 0.06
24228 H 146.41812983428048 97.65408437394612 83.3982068788055 H 0.0 **** 0.06
24229 H 145.8986256850018 99.258842317078 82.82478208708528 H 0.0 **** 0.06
24230 H 147.2350700589037 99.12051941208713 83.99296860058362 H 0.0 **** 0.06
24231 C 14.453397950339365 179.87526202360533 46.091920858035465 C 0.0 **** -0.24
24232 H 14.795976122673352 179.65819222123127 47.10352580713953 H 0.0 **** 0.06
24233 H 14.232120170387617 180.93982734185187 46.00513637666333 H 0.0 **** 0.06
24234 H 13.552574709338785 179.29876033971925 45.8829783632425 H 0.0 **** 0.06
24235 H 15.231253108748092 179.60611899363275 45.378834594949694 H 0.0 **** 0.06
24236 C 113.62682856750513 117.74106809221257 9.457065543998098 C 0.0 **** -0.24
24237 H 113.61096359375247 117.06356298189792 10.310898557310423 H 0.0 **** 0.06
24238 H 114.43565079314885 117.45716848901304 8.783651623175942 H 0.0 **** 0.06
24239 H 113.78609956687148 118.7612244704165 9.806867491638592 H 0.0 **** 0.06
24240 H 112.67519606171689 117.68287294896214 8.929552924838632 H 0.0 **** 0.06
24241 C 143.68573247366913 133.1738429411508 120.90006251324482 C 0.0 **** -0.24
24242 H 143.88908526926798 132.35099298317866 121.58557274297624 H 0.0 **** 0.06
24243 H 143.40500129764146 134.05987498263366 121.46950163296779 H 0.0 **** 0.06
24244 H 142.87051236529663 132.89669259553196 120.23227173260966 H 0.0 **** 0.06
24245 H 144.58000036716385 133.38612512282927 120.31351250868371 H 0.0 **** 0.06
24246 C 142.29649922769494 106.73490125264834 107.64159642514494 C 0.0 **** -0.24
24247 H 142.64066565985664 105.70384714293806 107.55423170154467 H 0.0 **** 0.06
24248 H 142.07774220504996 106.95643130224312 108.68692963422183 H 0.0 **** 0.06
24249 H 141.39441577756617 106.8677156250244 107.04419163957965 H 0.0 **** 0.06
24250 H 143.0740321058266 107.409074981603 107.28238605657029 H 0.0 **** 0.06
24251 C 1.4214606123255464 145.09403182318096 92.47560647180927 C 0.0 **** -0.24
24252 H 2.198751675420688 144.37471253633146 92.21967674023085 H 0.0 **** 0.06
24253 H 1.6752554617769277 145.5828200858132 93.416537342521 H 0.0 **** 0.06
24254 H 0.4676010764627492 144.57768497994016 92.57969099620925 H 0.0 **** 0.06
24255 H 1.3451820136346058 145.8429134662202 91.68681527114347 H 0.0 **** 0.06
24256 C 83.48518042347399 62.896565630521934 2.6460993248006304 C 0.0 **** -0.24
24257 H 83.37016605753732 61.9641410056432 3.1984313703182963 H 0.0 **** 0.06
24258 H 83.83228109313072 62.67979508953947 1.634957208983515 H 0.0 **** 0.06
24259 H 84.21250146656874 63.531103777436186 3.1521043776379614 H 0.0 **** 0.06
24260 H 82.52523919268009 63.4106880684172 2.5982491990626357 H 0.0 **** 0.06
24261 C 111.66142174307538 131.93633558253737 96.74032904984631 C 0.0 **** -0.24
24262 H 112.60276567801918 131.89371799044136 96.1916697401482 H 0.0 **** 0.06
24263 H 111.5868048344235 132.89251083307755 97.25850941890894 H 0.0 **** 0.06
24264 H 111.62810226290674 131.12517138917931 97.46794512655106 H 0.0 **** 0.06
24265 H 110.83079886218707 131.83442751510614 96.04309091090988 H 0.0 **** 0.06
24266 C 103.79606763015005 54.9001533236617 169.51947698288782 C 0.0 **** -0.24
24267 H 103.45770758123919 55.368791746973386 170.44350197397057 H 0.0 **** 0.06
24268 H 103.09978832759296 54.108977520804785 169.23884253243594 H 0.0 **** 0.06
24269 H 104.78811583967794 54.47460398642889 169.6697160852112 H 0.0 **** 0.06
24270 H 103.83621106630332 55.64790830715941 168.72722533207684 H 0.0 **** 0.06
24271 C 46.07735037034382 113.37954453505301 57.08205789852872 C 0.0 **** -0.24
24272 H 46.231843236979046 112.35117587883758 56.75515340608706 H 0.0 **** 0.06
24273 H 45.11772968485707 113.73928613355861 56.707263472201475 H 0.0 **** 0.06
24274 H 46.87783351815955 114.00856280530706 56.692906998250464 H 0.0 **** 0.06
24275 H 46.080145063424425 113.41913684911799 58.170154982939835 H 0.0 **** 0.06
24276 C 7.482075412423335 80.22807909920232 64.80054047373369 C 0.0 **** -0.24
24277 H 6.806722247276461 79.6189001685072 64.2004156543731 H 0.0 **** 0.06
24278 H 7.667539740723065 81.17395286736456 64.29183675387958 H 0.0 **** 0.06
24279 H 8.424877243479308 79.69797785701437 64.93761007288543 H 0.0 **** 0.06
24280 H 7.028999061060453 80.42067936958628 65.7734498507156 H 0.0 **** 0.06
24281 C 168.6316605014922 182.5428417677922 163.44103207149618 C 0.0 **** -0.24
24282 H 167.9604834828816 183.0988297547892 164.0948007055176 H 0.0 **** 0.06
24283 H 169.0599488502511 181.703048778743 163.99017827653591 H 0.0 **** 0.06
24284 H 169.43025708741465 183.19919129812746 163.09755072506573 H 0.0 **** 0.06
24285 H 168.07402532835044 182.16831687566048 162.58276649742334 H 0.0 **** 0.06
24286 C 55.16078189600219 70.66137453028335 125.32455755579824 C 0.0 **** -0.24
24287 H 55.93768171384025 69.90399312284804 125.43309224157468 H 0.0 **** 0.06
24288 H 55.323210419018835 71.21916263720854 124.40269635772512 H 0.0 **** 0.06
24289 H 55.19841958600273 71.34324264306606 126.17425807291491 H 0.0 **** 0.06
24290 H 54.185208634612565 70.17754839801681 125.29056132633735 H 0.0 **** 0.06
24291 C 70.19883569380016 115.59572018392447 22.750893587700148 C 0.0 **** -0.24
24292 H 70.79195940879497 116.29957858627876 22.166865938722097 H 0.0 **** 0.06
24293 H 70.386605412344 115.75573207814989 23.812634332879057 H 0.0 **** 0.06
24294 H 70.47727578485168 114.57675577370401 22.482024978799643 H 0.0 **** 0.06
24295 H 69.14064382123557 115.75089021580021 22.541217890252994 H 0.0 **** 0.06
24296 C 193.10051383330796 180.66992343283252 70.49461288281822 C 0.0 **** -0.24
24297 H 192.14464654417498 181.1625601461892 70.67521048998796 H 0.0 **** 0.06
24298 H 193.0359081985937 179.62677292228236 70.80700501788863 H 0.0 **** 0.06
24299 H 193.88189072086732 181.17211860793762 71.06438374254992 H 0.0 **** 0.06
24300 H 193.33758986789502 180.71688452010184 69.43157511294885 H 0.0 **** 0.06
24301 C 159.7044971219034 101.06084767110232 37.730628654471275 C 0.0 **** -0.24
24302 H 160.0833601922447 100.39595034042085 36.954978618898025 H 0.0 **** 0.06
24303 H 159.65402662429432 102.07886741418207 37.34270567001856 H 0.0 **** 0.06
24304 H 160.37227200313194 101.03234277573392 38.590969770411746 H 0.0 **** 0.06
24305 H 158.7082615515989 100.7373097612022 38.03166284649423 H 0.0 **** 0.06
24306 C 18.530119024667556 33.16404334195289 13.230634934966815 C 0.0 **** -0.24
24307 H 18.96590329488633 34.16107514831589 13.1727789713768 H 0.0 **** 0.06
24308 H 18.486399832413127 32.846547841404885 14.273073877837362 H 0.0 **** 0.06
24309 H 19.147249772741006 32.466060889110594 12.66377353668031 H 0.0 **** 0.06
24310 H 17.5238497152107 33.18189841844378 12.813207175130572 H 0.0 **** 0.06
24311 C 51.417689930915856 131.65003601821954 112.71723806585942 C 0.0 **** -0.24
24312 H 50.869718211611456 130.75755254404686 113.01867946330037 H 0.0 **** 0.06
24313 H 51.01701940011236 132.51788674745785 113.24091441276266 H 0.0 **** 0.06
24314 H 51.31282954123387 131.79405899148657 111.64096932283599 H 0.0 **** 0.06
24315 H 52.472201358634436 131.5294321787726 112.96547191991374 H 0.0 **** 0.06
24316 C 106.96355153316011 58.614229773992705 10.280490321893922 C 0.0 **** -0.24
24317 H 106.83996553433295 57.59161606765794 9.923181767041171 H 0.0 **** 0.06
24318 H 107.65456813507706 58.62283235801918 11.124140581279704 H 0.0 **** 0.06
24319 H 105.99782112060794 59.008322335925385 10.59705391173486 H 0.0 **** 0.06
24320 H 107.3627693307368 59.23383826608607 9.477337687472527 H 0.0 **** 0.06
24321 C 140.7780436833219 120.27299844662656 188.65291641891383 C 0.0 **** -0.24
24322 H 140.6856703101932 120.62971588419177 189.67892398223643 H 0.0 **** 0.06
24323 H 141.8206128501644 120.33674821810612 188.34026614202182 H 0.0 **** 0.06
24324 H 140.1633024449877 120.88967206168081 187.99723849125536 H 0.0 **** 0.06
24325 H 140.44296740559224 119.23765652377438 188.59651023271755 H 0.0 **** 0.06
24326 C 40.49583478092313 12.420990799143958 41.06039932112276 C 0.0 **** -0.24
24327 H 40.63446872940062 13.10715044504488 41.89532939619443 H 0.0 **** 0.06
24328 H 40.95689918582056 12.839741648155687 40.16550321665329 H 0.0 **** 0.06
24329 H 39.42959131768515 12.272803781326921 40.8852217030564 H 0.0 **** 0.06
24330 H 40.96140143350101 11.464061898458041 41.2955640424189 H 0.0 **** 0.06
24331 C 0.0021526499370096985 134.30201260078368 164.25149201259822 C 0.0 **** -0.24
24332 H 1.069130302333356 134.5233308890542 164.2244071814854 H 0.0 **** 0.06
24333 H -0.49825348993105933 135.01037041095526 164.9115629067313 H 0.0 **** 0.06
24334 H -0.1484211761385481 133.2889824507741 164.6239341019097 H 0.0 **** 0.06
24335 H -0.411012325484414 134.38609304383175 163.24673341099614 H 0.0 **** 0.06
24336 C 95.18349560122965 197.2768263523118 34.959339211818246 C 0.0 **** -0.24
24337 H 95.26105950130165 197.27924704684585 33.87195396682205 H 0.0 **** 0.06
24338 H 96.17550988258802 197.38805932254462 35.395152861701035 H 0.0 **** 0.06
24339 H 94.74470318653016 196.3349078896773 35.2890080092281 H 0.0 **** 0.06
24340 H 94.54941418738662 198.10397068448944 35.27986957759833 H 0.0 **** 0.06
24341 C 162.7694787076077 35.98916084990549 150.67886198215956 C 0.0 **** -0.24
24342 H 162.55628458012978 34.97903242874112 150.3269649057304 H 0.0 **** 0.06
24343 H 163.77919573163427 36.026026030975686 151.0873116900301 H 0.0 **** 0.06
24344 H 162.05349737929072 36.26115662706397 151.45449186775704 H 0.0 **** 0.06
24345 H 162.68703208634696 36.68739147146461 149.84706501463444 H 0.0 **** 0.06
24346 C 70.0024169387151 17.138435931828894 112.75900840795921 C 0.0 **** -0.24
24347 H 71.0075033264196 17.56030276549299 112.74874127643946 H 0.0 **** 0.06
24348 H 69.38181296794554 17.694515094769514 113.46274158965218 H 0.0 **** 0.06
24349 H 70.05095333912504 16.093196396725915 113.06434464005764 H 0.0 **** 0.06
24350 H 69.56963799779925 17.20515809356101 111.76147735781555 H 0.0 **** 0.06
24351 C 145.30284390905817 126.20618243320362 182.73705916402318 C 0.0 **** -0.24
24352 H 146.03316393287227 125.67776822936963 182.12507652299055 H 0.0 **** 0.06
24353 H 144.38246060022797 126.34011509825967 182.16941114777313 H 0.0 **** 0.06
24354 H 145.70173694876564 127.1812854266899 183.01771231364032 H 0.0 **** 0.06
24355 H 145.0946734209898 125.62630683137667 183.63613202689743 H 0.0 **** 0.06
24356 C 101.22277694900689 163.2536918861307 183.0204896816474 C 0.0 **** -0.24
24357 H 101.04883800800047 164.10851484337937 183.67264579762576 H 0.0 **** 0.06
24358 H 101.4940534660997 163.606051571273 182.02433686786637 H 0.0 **** 0.06
24359 H 100.31473394238267 162.6530897327646 182.95812257029337 H 0.0 **** 0.06
24360 H 102.03260988351519 162.64665369678528 183.42461086047442 H 0.0 **** 0.06
24361 C 155.70154567556926 76.85762542943513 46.35046061364909 C 0.0 **** -0.24
24362 H 155.93501621981738 77.48426839065667 47.211785643698704 H 0.0 **** 0.06
24363 H 155.28031286047977 75.91226504746152 46.693372205212654 H 0.0 **** 0.06
24364 H 156.61272677146718 76.66557839471739 45.784490106207556 H 0.0 **** 0.06
24365 H 154.97962702598903 77.36896447262825 45.71404367556113 H 0.0 **** 0.06
24366 C 42.5983779869822 14.431781490003146 58.33427622615619 C 0.0 **** -0.24
24367 H 41.91215001406454 14.273450803932434 57.50274677352533 H 0.0 **** 0.06
24368 H 42.07738289558188 14.251614705416614 59.27446648425865 H 0.0 **** 0.06
24369 H 42.9654909797037 15.457635854574562 58.311970492534044 H 0.0 **** 0.06
24370 H 43.43839722709845 13.742353347702362 58.2466166201132 H 0.0 **** 0.06
24371 C 180.6508419517623 49.501998945090165 179.74078496753577 C 0.0 **** -0.24
24372 H 180.45292608249298 48.43873141762883 179.87984673973895 H 0.0 **** 0.06
24373 H 180.77683262596437 49.71162205756414 178.67831793513295 H 0.0 **** 0.06
24374 H 181.56002458236554 49.774480737400054 180.2761094344794 H 0.0 **** 0.06
24375 H 179.81259521384072 50.081170309321266 180.1286285295259 H 0.0 **** 0.06
24376 C 120.50754177037535 44.55989353050211 75.2725338566249 C 0.0 **** -0.24
24377 H 119.99368140872045 44.95183902396815 76.1505161744319 H 0.0 **** 0.06
24378 H 121.514333690082 44.97523950875268 75.22460225542078 H 0.0 **** 0.06
24379 H 119.95618962013683 44.83898185314109 74.37412625610337 H 0.0 **** 0.06
24380 H 120.56511544630692 43.47328875437188 75.34040893386603 H 0.0 **** 0.06
24381 C 115.34943887350997 83.51556682063449 134.35459149443437 C 0.0 **** -0.24
24382 H 115.97811885752836 82.70088178699189 134.7164954808501 H 0.0 **** 0.06
24383 H 114.31280535721257 83.32358014841301 134.62927627258935 H 0.0 **** 0.06
24384 H 115.43197160149455 83.58289672946015 133.2702360663536 H 0.0 **** 0.06
24385 H 115.67722677131192 84.4532334772781 134.8031269020731 H 0.0 **** 0.06
24386 C 20.973219178486374 7.049947401092432 34.05221373331189 C 0.0 **** -0.24
24387 H 21.409262408782354 6.94891110874471 33.05874876953489 H 0.0 **** 0.06
24388 H 20.825787526808426 8.106508127886492 34.278189490976416 H 0.0 **** 0.06
24389 H 21.64519238367882 6.6110562259615335 34.789791683245994 H 0.0 **** 0.06
24390 H 20.013477497574854 6.5337448517489705 34.08180298321926 H 0.0 **** 0.06
24391 C 157.47222725417055 122.85139824306171 39.82985939768594 C 0.0 **** -0.24
24392 H 158.3556479753139 122.26534402389635 39.578985053681095 H 0.0 **** 0.06
24393 H 156.9265763553691 123.09464239907945 38.917047750455595 H 0.0 **** 0.06
24394 H 157.77630308882001 123.77236056636676 40.3276926791732 H 0.0 **** 0.06
24395 H 156.82941781203658 122.27391577905092 40.49492309884448 H 0.0 **** 0.06
24396 C 69.22898481268874 102.84771275922333 21.002634994611753 C 0.0 **** -0.24
24397 H 69.41776938422383 101.879794264444 21.46652382464103 H 0.0 **** 0.06
24398 H 69.96919371598273 103.56729373131952 21.34992975109884 H 0.0 **** 0.06
24399 H 68.23059665945839 103.19107654620683 21.27483363906208 H 0.0 **** 0.06
24400 H 69.29572846706938 102.75005867210638 19.918994071703082 H 0.0 **** 0.06
24401 C 109.01514807371498 134.23562339891828 42.51317837326803 C 0.0 **** -0.24
24402 H 109.68004787461811 133.48770730931915 42.94430299968987 H 0.0 **** 0.06
24403 H 109.5949962582975 135.11064128953856 42.21710492403787 H 0.0 **** 0.06
24404 H 108.26842502086117 134.52615907368897 43.25253714839991 H 0.0 **** 0.06
24405 H 108.51669182029556 133.81663915813473 41.63878357576125 H 0.0 **** 0.06
24406 C 35.90982356275171 139.34439365817423 100.66126289624643 C 0.0 **** -0.24
24407 H 35.42904296598984 140.12563292565494 100.07178267956937 H 0.0 **** 0.06
24408 H 36.159842924771525 139.7364528507267 101.64859397245579 H 0.0 **** 0.06
24409 H 36.82059065895143 139.01798690936644 100.15928619226307 H 0.0 **** 0.06
24410 H 35.22963932648905 138.49958736400893 100.76753802259287 H 0.0 **** 0.06
24411 C 193.9849638636276 188.15103339648152 152.37873318423638 C 0.0 **** -0.24
24412 H 193.15745731856418 188.85297542076353 152.2732343409008 H 0.0 **** 0.06
24413 H 194.83287051514543 188.4976627619456 151.78751318521606 H 0.0 **** 0.06
24414 H 193.6740321901146 187.1674435623712 152.0268479590555 H 0.0 **** 0.06
24415 H 194.27549543068622 188.08605184084595 153.42733725177328 H 0.0 **** 0.06
24416 C 74.08783753338886 65.00020826632128 189.0892774738844 C 0.0 **** -0.24
24417 H 73.627955335153 65.2374033870797 190.04896415963566 H 0.0 **** 0.06
24418 H 74.46316725223897 65.9159665465555 188.63111911195716 H 0.0 **** 0.06
24419 H 73.34657091662584 64.54230540245501 188.4350623472953 H 0.0 **** 0.06
24420 H 74.91460284593799 64.30671239393025 189.24523352652068 H 0.0 **** 0.06
24421 C 135.06705285522239 33.58203226571649 187.54631170799442 C 0.0 **** -0.24
24422 H 134.9711051397712 32.927026117504965 188.41274790436475 H 0.0 **** 0.06
24423 H 135.74434824892194 33.12901975492677 186.82258434976836 H 0.0 **** 0.06
24424 H 135.46427577675595 34.546097838784675 187.86346024898913 H 0.0 **** 0.06
24425 H 134.08802907650255 33.72561389442845 187.08939658019307 H 0.0 **** 0.06
24426 C 71.36773923856569 18.626531303852147 20.30374074047137 C 0.0 **** -0.24
24427 H 71.00860970457632 18.898187646016993 21.297255979185707 H 0.0 **** 0.06
24428 H 71.91545291549734 19.466207335178694 19.87456292482767 H 0.0 **** 0.06
24429 H 70.51891745898945 18.381220370575363 19.664885647196684 H 0.0 **** 0.06
24430 H 72.0272002726409 17.762318869063847 20.380289312141855 H 0.0 **** 0.06
24431 C 180.85509979214078 26.321371747242452 105.62452517392046 C 0.0 **** -0.24
24432 H 180.49007046443674 25.79394952309022 106.50659552216922 H 0.0 **** 0.06
24433 H 180.54107293505743 27.364316813303063 105.6696517805891 H 0.0 **** 0.06
24434 H 180.44612940411824 25.856158714338832 104.72752364540014 H 0.0 **** 0.06
24435 H 181.9433311090488 26.269730090256076 105.59637532580541 H 0.0 **** 0.06
24436 C 8.674350756588922 152.7239508638008 31.962969711719154 C 0.0 **** -0.24
24437 H 7.608352639887855 152.5127339679619 31.874476008964507 H 0.0 **** 0.06
24438 H 8.812914241436438 153.74293121889247 32.32380051787328 H 0.0 **** 0.06
24439 H 9.147886979231451 152.61641027060472 30.986812367032286 H 0.0 **** 0.06
24440 H 9.126202745024507 152.02413927510187 32.66550810174925 H 0.0 **** 0.06
24441 C 108.1725718425198 115.45859404125915 68.03013548609913 C 0.0 **** -0.24
24442 H 108.18342143087213 116.146774956146 67.18481365331075 H 0.0 **** 0.06
24443 H 108.12928131356006 114.43274353512925 67.66179543837941 H 0.0 **** 0.06
24444 H 107.30044251567656 115.65914478819849 68.65115519816004 H 0.0 **** 0.06
24445 H 109.07913369319627 115.59437954946188 68.62048504710474 H 0.0 **** 0.06
24446 C 61.76066211679631 163.37155860676444 117.52026955745609 C 0.0 **** -0.24
24447 H 61.08953990004187 163.0003068278992 118.29538167147217 H 0.0 **** 0.06
24448 H 61.2108545144128 163.47732465810932 116.58511993176518 H 0.0 **** 0.06
24449 H 62.581330274826854 162.66869571579042 117.38308291463196 H 0.0 **** 0.06
24450 H 62.158838362274025 164.3414730112629 117.82017692988794 H 0.0 **** 0.06
24451 C 120.83354751715672 102.85145346660909 72.03197804401265 C 0.0 **** -0.24
24452 H 119.92287558770118 103.07302755375898 72.58864333599787 H 0.0 **** 0.06
24453 H 120.86715117414326 101.78748961314187 71.79787893719785 H 0.0 **** 0.06
24454 H 121.70153876028985 103.1188953287334 72.63433734492494 H 0.0 **** 0.06
24455 H 120.84237494117889 103.42707326419671 71.10635522151824 H 0.0 **** 0.06
24456 C 2.5348372123052343 101.40853510618848 12.427275011144474 C 0.0 **** -0.24
24457 H 3.509288441025376 101.31863099451664 12.907201810747381 H 0.0 **** 0.06
24458 H 1.8803844616147884 102.02288351927427 13.04649898507023 H 0.0 **** 0.06
24459 H 2.0970155301295677 100.41742025066557 12.306717102338268 H 0.0 **** 0.06
24460 H 2.6534327440859897 101.87576401885408 11.448379215136981 H 0.0 **** 0.06
24461 C 34.929236505040436 31.358941246127515 52.57661152305687 C 0.0 **** -0.24
24462 H 35.20073134997186 32.36084660404782 52.90858121622911 H 0.0 **** 0.06
24463 H 35.06365995643981 30.65466392267689 53.399199832283344 H 0.0 **** 0.06
24464 H 35.566531824792236 31.06745504183347 51.74116064373109 H 0.0 **** 0.06
24465 H 33.887081365852026 31.350607393514764 52.257777884903234 H 0.0 **** 0.06
24466 C 150.07309965871627 0.6400689099044143 23.78089857981945 C 0.0 **** -0.24
24467 H 150.57432015434102 -0.263154631272414 23.43079578879059 H 0.0 **** 0.06
24468 H 149.2114824528395 0.3644950705751526 24.38799206989748 H 0.0 **** 0.06
24469 H 149.74308096116937 1.226776304866867 22.92453432343325 H 0.0 **** 0.06
24470 H 150.7672146545442 1.230352307202537 24.3800493035601 H 0.0 **** 0.06
24471 C 48.044876459820046 68.47896927409033 44.19164896170122 C 0.0 **** -0.24
24472 H 48.93478976777692 69.10550529371292 44.2521766739369 H 0.0 **** 0.06
24473 H 47.22871014205168 68.95490686748553 44.73524590072978 H 0.0 **** 0.06
24474 H 48.256433778977964 67.50509634982552 44.63254203145914 H 0.0 **** 0.06
24475 H 47.76155436559034 68.35138031133772 43.14684882242176 H 0.0 **** 0.06
24476 C 9.780782176446223 109.5653374497611 43.69103562984013 C 0.0 **** -0.24
24477 H 9.413698941212488 109.75888140866093 42.68279243942591 H 0.0 **** 0.06
24478 H 10.871195954217512 109.53858634569352 43.68182201109235 H 0.0 **** 0.06
24479 H 9.39666422016586 108.60664330134838 44.03945291752585 H 0.0 **** 0.06
24480 H 9.442495448596162 110.35732410719396 44.35804153205365 H 0.0 **** 0.06
24481 C 165.21452072527597 134.60916986331603 76.08932970047458 C 0.0 **** -0.24
24482 H 165.0485736158863 134.0075459891691 75.19605206230926 H 0.0 **** 0.06
24483 H 164.63020124939572 135.52687400843155 76.02326509783124 H 0.0 **** 0.06
24484 H 166.2730488739449 134.85596554181132 76.16893953522947 H 0.0 **** 0.06
24485 H 164.90580929993035 134.04388912134624 76.96918346110442 H 0.0 **** 0.06
24486 C 59.866550866048215 82.93073973473867 130.8207424873429 C 0.0 **** -0.24
24487 H 60.95028897079578 82.91795256838083 130.9415891503645 H 0.0 **** 0.06
24488 H 59.41171946835357 82.26573577846676 131.55542598148554 H 0.0 **** 0.06
24489 H 59.609247391389204 82.59382684545511 129.8165431495944 H 0.0 **** 0.06
24490 H 59.49793734373992 83.94568326402651 130.96947844803356 H 0.0 **** 0.06
24491 C 145.03274670813678 157.6941023008823 91.27125780846501 C 0.0 **** -0.24
24492 H 145.11249485140488 158.49016882109018 92.01092394370073 H 0.0 **** 0.06
24493 H 144.34439492863936 157.99889853684198 90.48192213791458 H 0.0 **** 0.06
24494 H 144.65958625367247 156.78913580038903 91.7502845106535 H 0.0 **** 0.06
24495 H 146.01532541151605 157.49847761364248 90.84077694234702 H 0.0 **** 0.06
24496 C 13.877609988557829 82.58166541866234 28.008813933314116 C 0.0 **** -0.24
24497 H 13.883482012864377 82.26547427918754 29.051300545511168 H 0.0 **** 0.06
24498 H 14.523248467765868 81.92496317994431 27.4256417390136 H 0.0 **** 0.06
24499 H 14.242679790268426 83.60661581165053 27.937966000283865 H 0.0 **** 0.06
24500 H 12.860265163706039 82.53109793471569 27.619903745347074 H 0.0 **** 0.06
24501 C 135.9608100006594 36.43130214553773 74.75854386721844 C 0.0 **** -0.24
24502 H 136.54788737811703 37.30172452688794 75.05155191192291 H 0.0 **** 0.06
24503 H 136.63164003710463 35.609214674401755 74.50704445220951 H 0.0 **** 0.06
24504 H 135.3492735300359 36.68036243298823 73.89214109165279 H 0.0 **** 0.06
24505 H 135.3164705203362 36.133806136784244 75.58564327722965 H 0.0 **** 0.06
24506 C 46.27695573356095 148.96281070159557 141.06004473192547 C 0.0 **** -0.24
24507 H 46.20293748475294 148.13119662081886 141.76099409391088 H 0.0 **** 0.06
24508 H 46.04805475193953 148.6119083184023 140.053517260004 H 0.0 **** 0.06
24509 H 47.288544778954815 149.36817365931012 141.08352152528704 H 0.0 **** 0.06
24510 H 45.56736843282408 149.7413323950659 141.34365813040478 H 0.0 **** 0.06
24511 C 107.26303403818133 81.682263742006 111.50198757602891 C 0.0 **** -0.24
24512 H 106.68745640994166 81.861905345179 112.41103873532978 H 0.0 **** 0.06
24513 H 106.6411792007782 81.15663157870608 110.77758294812736 H 0.0 **** 0.06
24514 H 108.13681327424729 81.07625266679548 111.73947038556878 H 0.0 **** 0.06
24515 H 107.58519286121691 82.63527994980066 111.0826398945951 H 0.0 **** 0.06
24516 C 52.97537015319067 113.82021344282205 110.8674343112205 C 0.0 **** -0.24
24517 H 53.1018725394713 114.88190828224825 111.08034721782218 H 0.0 **** 0.06
24518 H 53.34184655203052 113.60545864455116 109.86264022791656 H 0.0 **** 0.06
24519 H 51.91904700213804 113.56005130840961 110.93241691322453 H 0.0 **** 0.06
24520 H 53.53929012426073 113.23377781580848 111.59308726697799 H 0.0 **** 0.06
24521 C 178.9642083314945 1.4054049491980862 53.543490905014096 C 0.0 **** -0.24
24522 H 179.76638403359453 1.3140072888566223 54.27586737610699 H 0.0 **** 0.06
24523 H 178.27593896139052 0.5668649293469272 53.651613989508064 H 0.0 **** 0.06
24524 H 179.38793668831818 1.4004669853858545 52.53873790053393 H 0.0 **** 0.06
24525 H 178.42816568176266 2.340682249698105 53.70660235125035 H 0.0 **** 0.06
24526 C 59.09005135515224 5.8700142666094735 172.35798143876622 C 0.0 **** -0.24
24527 H 58.08911687837133 5.950437641831741 172.7814845997829 H 0.0 **** 0.06
24528 H 59.35242891214466 4.817172978551696 172.24457082652663 H 0.0 **** 0.06
24529 H 59.80498273757536 6.353926077534027 173.02258593477194 H 0.0 **** 0.06
24530 H 59.11203426911777 6.356733395004994 171.38361400545432 H 0.0 **** 0.06
24531 C 79.50605277122366 21.180880306144616 129.95916386346917 C 0.0 **** -0.24
24532 H 79.32602506561807 21.92197866945463 129.1809570112326 H 0.0 **** 0.06
24533 H 79.20506922480126 21.586859369712272 130.9244128291441 H 0.0 **** 0.06
24534 H 80.56739122003702 20.93166535293392 129.984150052049 H 0.0 **** 0.06
24535 H 78.92703649355545 20.28227937090722 129.7454813928798 H 0.0 **** 0.06
24536 C 66.97294449251409 52.11077505931091 30.7596092924459 C 0.0 **** -0.24
24537 H 66.03447304719434 51.76088846186269 30.330315240164907 H 0.0 **** 0.06
24538 H 67.6199993691976 52.48091802192002 29.964701848472117 H 0.0 **** 0.06
24539 H 67.46504183597517 51.286055011161636 31.27620560746368 H 0.0 **** 0.06
24540 H 66.77065235831886 52.913617894070526 31.46809566702092 H 0.0 **** 0.06
24541 C 83.38267393863708 139.69240609234623 146.6592629885421 C 0.0 **** -0.24
24542 H 84.06182403888559 139.4072924438634 145.85494709261704 H 0.0 **** 0.06
24543 H 83.88943762764109 140.38354977778613 147.33381593855 H 0.0 **** 0.06
24544 H 83.07870123069097 138.8028343111597 147.21059801622147 H 0.0 **** 0.06
24545 H 82.5023722313922 140.17619195486833 146.23618991809627 H 0.0 **** 0.06
24546 C 11.629857049573673 182.67270091514445 125.94789461231142 C 0.0 **** -0.24
24547 H 12.052791332197671 183.61120539768422 126.30654711174623 H 0.0 **** 0.06
24548 H 11.442302506137025 182.01187248512036 126.79383358663051 H 0.0 **** 0.06
24549 H 12.332252521639049 182.19700613942354 125.26342710808638 H 0.0 **** 0.06
24550 H 10.69312103642983 182.8723309211338 125.42662001549098 H 0.0 **** 0.06
24551 C 124.67324083211389 75.14910307244995 89.22075671767038 C 0.0 **** -0.24
24552 H 123.71546793520764 74.9564345778518 88.73816621312318 H 0.0 **** 0.06
24553 H 124.77294393652397 74.5080061313618 90.09705615366602 H 0.0 **** 0.06
24554 H 124.7230030605935 76.19325569969833 89.52671040017825 H 0.0 **** 0.06
24555 H 125.4811723408965 74.93558274301837 88.52088856607841 H 0.0 **** 0.06
24556 C 175.87323930741007 103.00537253840864 40.828293411818436 C 0.0 **** -0.24
24557 H 176.60173386296478 103.46930661005808 41.492106268927955 H 0.0 **** 0.06
24558 H 175.3953314567603 103.77388027829068 40.21930518491621 H 0.0 **** 0.06
24559 H 175.11731949141935 102.49093894581955 41.42201978229997 H 0.0 **** 0.06
24560 H 176.37669947293787 102.28894298487964 40.17973792227761 H 0.0 **** 0.06
24561 C 39.92027321562492 86.30334134829491 51.90623895998854 C 0.0 **** -0.24
24562 H 39.55331383332987 87.19298660534096 51.395096322947765 H 0.0 **** 0.06
24563 H 40.26072626672914 85.57542605528815 51.168321094732164 H 0.0 **** 0.06
24564 H 39.11692079550431 85.86953865645384 52.50148327207842 H 0.0 **** 0.06
24565 H 40.75003004039809 86.57541702373302 52.558644602243234 H 0.0 **** 0.06
24566 C 54.52578362593954 108.59933883207361 53.71762924010949 C 0.0 **** -0.24
24567 H 54.491362586930705 107.5554955738329 53.405922449287345 H 0.0 **** 0.06
24568 H 54.1700879915455 108.68337348572601 54.74459101047489 H 0.0 **** 0.06
24569 H 53.890392100960554 109.19474183907516 53.06264181058006 H 0.0 **** 0.06
24570 H 55.55237127961789 108.96179660877215 53.657563873513254 H 0.0 **** 0.06
24571 C 15.728105879504994 13.964939940307303 73.77230872618841 C 0.0 **** -0.24
24572 H 16.546767491645596 14.53970675981148 73.33932841612675 H 0.0 **** 0.06
24573 H 14.80073793295901 14.530944431448688 73.68178635269996 H 0.0 **** 0.06
24574 H 15.934957741532912 13.771744549731913 74.82437265280056 H 0.0 **** 0.06
24575 H 15.629968990307134 13.017677811225347 73.24153353446466 H 0.0 **** 0.06
24576 C 81.09013069447462 38.393457166074086 164.70460694410085 C 0.0 **** -0.24
24577 H 82.10996643707028 38.017175612178335 164.62062512641734 H 0.0 **** 0.06
24578 H 80.57406272645744 38.25920474556182 163.75331421924403 H 0.0 **** 0.06
24579 H 81.11375790605291 39.45276943488588 164.95917116274455 H 0.0 **** 0.06
24580 H 80.56366331133108 37.844040624743286 165.4844615596686 H 0.0 **** 0.06
24581 C 189.36505220691953 41.43981615004972 26.65653147141319 C 0.0 **** -0.24
24582 H 189.5936090508407 42.50113709118159 26.757379508881513 H 0.0 **** 0.06
24583 H 190.23341448812312 40.918316471030124 26.253934010361263 H 0.0 **** 0.06
24584 H 188.518316330159 41.313171984518206 25.9811868822992 H 0.0 **** 0.06
24585 H 189.11438872062269 41.028666713251454 27.634436702588175 H 0.0 **** 0.06
24586 C 110.71488314144977 114.0574684451735 96.08631527447005 C 0.0 **** -0.24
24587 H 110.74497362107121 112.9692179060713 96.15282874901189 H 0.0 **** 0.06
24588 H 109.70139469985301 114.40509675524444 96.28390676291167 H 0.0 **** 0.06
24589 H 111.0179966719219 114.36748568851155 95.08602272276119 H 0.0 **** 0.06
24590 H 111.3969243011147 114.4855055379333 96.82097967855526 H 0.0 **** 0.06
24591 C 32.520597441163076 153.71705798171953 113.99866189101823 C 0.0 **** -0.24
24592 H 33.31113770344541 154.3532770045972 113.59902310425494 H 0.0 **** 0.06
24593 H 31.94619003037178 154.27436428111093 114.73854059339601 H 0.0 **** 0.06
24594 H 32.963680117769115 152.83941864489077 114.46933547066064 H 0.0 **** 0.06
24595 H 31.863175077876562 153.403110608531 113.18876156674048 H 0.0 **** 0.06
24596 C 171.18381674039307 131.76196714270498 147.30930797021776 C 0.0 **** -0.24
24597 H 170.71578533446586 132.05962741637197 146.3709052580643 H 0.0 **** 0.06
24598 H 170.89083498716417 130.7410824799837 147.55263462647312 H 0.0 **** 0.06
24599 H 170.8600540955848 132.43294883122093 148.10463305756502 H 0.0 **** 0.06
24600 H 172.26806394970987 131.8145098451623 147.2069070338842 H 0.0 **** 0.06
24601 C 77.78544226093109 2.9704929026185454 179.64597672153306 C 0.0 **** -0.24
24602 H 77.37931279831979 2.0572513785523725 179.21027100027445 H 0.0 **** 0.06
24603 H 78.78339055580659 3.150075147936363 179.2466621970563 H 0.0 **** 0.06
24604 H 77.84038247670105 2.8614885448584246 180.72923768292355 H 0.0 **** 0.06
24605 H 77.13726109137565 3.810433255113516 179.39698666568262 H 0.0 **** 0.06
24606 C 95.50249371188568 84.84762452233352 192.80343310118917 C 0.0 **** -0.24
24607 H 95.83199050496532 85.80940999971256 193.19781269435572 H 0.0 **** 0.06
24608 H 94.70266536015313 84.45307365219162 193.43015066313382 H 0.0 **** 0.06
24609 H 96.33977562785569 84.15039817456807 192.80042055149806 H 0.0 **** 0.06
24610 H 95.13597984491702 84.97978551735659 191.78502613076347 H 0.0 **** 0.06
24611 C 182.48318581086372 104.09673676373623 60.720152078433784 C 0.0 **** -0.24
24612 H 182.9710272254875 104.71911745666989 59.969869656130186 H 0.0 **** 0.06
24613 H 181.80961537991882 103.39426438766293 60.22880482015523 H 0.0 **** 0.06
24614 H 181.9134062280773 104.72958772670381 61.401696355454646 H 0.0 **** 0.06
24615 H 183.23717365849137 103.54595855418935 61.28189967032057 H 0.0 **** 0.06
24616 C 187.76643272631392 98.26196458216987 160.88263957144065 C 0.0 **** -0.24
24617 H 186.9619332643233 98.37923235940048 161.60936963697344 H 0.0 **** 0.06
24618 H 188.08533803371472 97.21957169535813 160.85952740503024 H 0.0 **** 0.06
24619 H 188.60744760773207 98.89364442761217 161.16708324891405 H 0.0 **** 0.06
24620 H 187.40925547132866 98.55440432646878 159.89552859821586 H 0.0 **** 0.06
24621 C 170.4523316326942 23.612281455351564 61.65179201153131 C 0.0 **** -0.24
24622 H 170.24083659233997 23.01915381423248 60.761903738374144 H 0.0 **** 0.06
24623 H 171.18133569730426 24.384451061807113 61.408403783265896 H 0.0 **** 0.06
24624 H 170.85299014444226 22.96493662200504 62.43251291414185 H 0.0 **** 0.06
24625 H 169.5321501415006 24.078421816455688 62.003830171529444 H 0.0 **** 0.06
24626 C 1.569196494937053 180.3584206074136 168.1823726507847 C 0.0 **** -0.24
24627 H 1.3023752725270654 179.94540883383 169.1553779957543 H 0.0 **** 0.06
24628 H 2.1024175748459584 181.29873079898158 168.32087787463794 H 0.0 **** 0.06
24629 H 0.6626245813682701 180.536218642161 167.60287378739076 H 0.0 **** 0.06
24630 H 2.207388115380077 179.65236958258973 167.65076932622304 H 0.0 **** 0.06
24631 C 182.78026853975814 115.7094981868081 166.69224216639378 C 0.0 **** -0.24
24632 H 182.91402741154772 116.60972579031508 167.2910154798854 H 0.0 **** 0.06
24633 H 181.78800234067376 115.71854224959063 166.23973392747905 H 0.0 **** 0.06
24634 H 182.88198158942077 114.8303068131249 167.32832051246157 H 0.0 **** 0.06
24635 H 183.53734253482804 115.67938995330593 165.90768039376076 H 0.0 **** 0.06
24636 C 118.15361071561077 127.26342359105064 81.21772589064543 C 0.0 **** -0.24
24637 H 118.77678897458722 126.46826533982053 81.6279293919768 H 0.0 **** 0.06
24638 H 117.20420708549946 126.84417562858638 80.88315213722393 H 0.0 **** 0.06
24639 H 118.66464811579996 127.72674903649454 80.37455926385974 H 0.0 **** 0.06
24640 H 117.9683171601134 128.0123834073922 81.98732914069677 H 0.0 **** 0.06
24641 C 39.69876684921225 137.7989791131204 101.40822214363519 C 0.0 **** -0.24
24642 H 40.63386276769096 137.79183945344707 101.96863479500911 H 0.0 **** 0.06
24643 H 39.071564625877116 138.618373846716 101.75873507371321 H 0.0 **** 0.06
24644 H 39.17798941742318 136.85300499326308 101.55887249347174 H 0.0 **** 0.06
24645 H 39.91139339774391 137.93178179069284 100.3469530427806 H 0.0 **** 0.06
24646 C 190.28530147490295 118.03456720746269 102.53465565621627 C 0.0 **** -0.24
24647 H 190.4603422432503 118.96793336728584 103.06962016084253 H 0.0 **** 0.06
24648 H 190.8459034401146 118.04189197488125 101.59931427988954 H 0.0 **** 0.06
24649 H 189.2221111387347 117.93258068611729 102.32031781330289 H 0.0 **** 0.06
24650 H 190.6143462602486 117.19597507448313 103.14804903623451 H 0.0 **** 0.06
24651 C 95.14154212197431 8.666822320261389 42.47150029384409 C 0.0 **** -0.24
24652 H 94.38111207117109 8.444046555152568 43.22095396835809 H 0.0 **** 0.06
24653 H 95.0480863187349 7.965789362080528 41.64082013138807 H 0.0 **** 0.06
24654 H 96.13047416180873 8.570894150019768 42.91834127465455 H 0.0 **** 0.06
24655 H 95.00397010302683 9.68419193593627 42.10575765332453 H 0.0 **** 0.06
24656 C 193.2520395357866 11.400415982697467 36.925561557489516 C 0.0 **** -0.24
24657 H 193.9513718023317 11.49942919899513 36.09500062701008 H 0.0 **** 0.06
24658 H 192.7683952379166 10.424732844161838 36.87787204558009 H 0.0 **** 0.06
24659 H 192.49707619433843 12.18420098474337 36.86000153579391 H 0.0 **** 0.06
24660 H 193.79178691975625 11.494675110647194 37.867399995162 H 0.0 **** 0.06
24661 C 117.83743975657993 166.69876799508927 170.0040407311438 C 0.0 **** -0.24
24662 H 118.06729710452527 166.7345160880091 171.06953657050695 H 0.0 **** 0.06
24663 H 118.47897464132319 165.96136299418018 169.5198180804672 H 0.0 **** 0.06
24664 H 118.01331080515789 167.67917061471982 169.562686299495 H 0.0 **** 0.06
24665 H 116.79347288923614 166.41964417085993 169.86728285057836 H 0.0 **** 0.06
24666 C 178.23144618629402 16.28653250007335 54.26077374230425 C 0.0 **** -0.24
24667 H 177.75949423256066 15.44161242189223 54.76134349534257 H 0.0 **** 0.06
24668 H 177.8586116518203 17.216773377322454 54.68965834999682 H 0.0 **** 0.06
24669 H 177.99562825396538 16.256437449728693 53.196338256178734 H 0.0 **** 0.06
24670 H 179.31204534137265 16.231547834909463 54.394784366483634 H 0.0 **** 0.06
24671 C 153.38195181877884 170.0418557094714 19.726765184673695 C 0.0 **** -0.24
24672 H 153.92142948394252 169.74694028326303 20.627188105862217 H 0.0 **** 0.06
24673 H 152.34578130516283 169.71328990469317 19.80067620289327 H 0.0 **** 0.06
24674 H 153.84929348352307 169.5804855361763 18.856578410223676 H 0.0 **** 0.06
24675 H 153.4131411640865 171.1272802421014 19.624132224302627 H 0.0 **** 0.06
24676 C 47.88177815891663 21.707347883927724 89.64457035402725 C 0.0 **** -0.24
24677 H 46.79540743717149 21.75168100977602 89.72672221832056 H 0.0 **** 0.06
24678 H 48.310844825745676 22.647358350601024 89.99239331645103 H 0.0 **** 0.06
24679 H 48.16056016327883 21.54327754336873 88.6036908225719 H 0.0 **** 0.06
24680 H 48.25866362528677 20.886514004710804 90.2553893024726 H 0.0 **** 0.06
24681 C 82.95465280482591 82.55203480398592 37.98245332875642 C 0.0 **** -0.24
24682 H 82.38389747449105 82.16330687656477 37.14021191832029 H 0.0 **** 0.06
24683 H 82.29245919533221 83.11300832087579 38.64178330306673 H 0.0 **** 0.06
24684 H 83.74362255441895 83.20786548239334 37.61503867669687 H 0.0 **** 0.06
24685 H 83.39941579930905 81.72299478267178 38.53345534108354 H 0.0 **** 0.06
24686 C 56.69538191870036 37.629929691983705 138.60120271340617 C 0.0 **** -0.24
24687 H 55.69467890573188 37.90188755512855 138.93591911235137 H 0.0 **** 0.06
24688 H 57.28837868631847 37.304309838303936 139.45633851825102 H 0.0 **** 0.06
24689 H 57.17070805752755 38.493702697621444 138.13744855731267 H 0.0 **** 0.06
24690 H 56.62823688770635 36.81911172643231 137.87562883009434 H 0.0 **** 0.06
24691 C 68.19200641694201 58.531486261362886 27.973672592097344 C 0.0 **** -0.24
24692 H 67.31084877945051 59.08593048281102 27.650365444916986 H 0.0 **** 0.06
24693 H 68.24661069449941 58.537923871182784 29.06253466972329 H 0.0 **** 0.06
24694 H 69.08599911054566 59.00041901533359 27.5621354411403 H 0.0 **** 0.06
24695 H 68.12501326777814 57.50364087316552 27.618267977326852 H 0.0 **** 0.06
24696 C 178.12395044442678 120.47598167996088 154.8972283639835 C 0.0 **** -0.24
24697 H 177.95955077426552 120.33579197999308 153.8293654255711 H 0.0 **** 0.06
24698 H 178.24148750529878 119.50377550585597 155.37655277471998 H 0.0 **** 0.06
24699 H 177.2690835990603 120.99478305447235 155.33114713029934 H 0.0 **** 0.06
24700 H 179.02468862690245 121.06945072845559 155.051888906612 H 0.0 **** 0.06
24701 C 12.74132261587198 117.05743802335226 117.47866059356917 C 0.0 **** -0.24
24702 H 13.747115855401091 116.64379904074536 117.39640207678829 H 0.0 **** 0.06
24703 H 12.267538645463901 117.05744929749807 116.49689206853549 H 0.0 **** 0.06
24704 H 12.798829884781412 118.07858059663303 117.8555285288804 H 0.0 **** 0.06
24705 H 12.154265286417228 116.44793550813245 118.16577780454031 H 0.0 **** 0.06
24706 C 140.53725883141226 150.65358595231015 48.348885794197486 C 0.0 **** -0.24
24707 H 140.22696275891897 150.1227521453648 49.249391495500944 H 0.0 **** 0.06
24708 H 141.37507170830654 151.31000090831722 48.584097766465874 H 0.0 **** 0.06
24709 H 139.70391209775113 151.24814049732313 47.97330781735428 H 0.0 **** 0.06
24710 H 140.8409646267597 149.9331943773876 47.589938871467695 H 0.0 **** 0.06
24711 C 153.38859168454132 147.34328223401909 76.90328024029544 C 0.0 **** -0.24
24712 H 153.95619415277662 146.61053260171363 77.47697449622173 H 0.0 **** 0.06
24713 H 152.71868423922297 146.8261996735304 76.21727638208061 H 0.0 **** 0.06
24714 H 154.07548055009175 147.97194433817359 76.3376192960964 H 0.0 **** 0.06
24715 H 152.80483508095904 147.96367026193454 77.58384002483226 H 0.0 **** 0.06
24716 C 76.41364335375397 139.8788125930409 40.30926492048735 C 0.0 **** -0.24
24717 H 76.15280288989021 139.29530671146168 39.426270683287 H 0.0 **** 0.06
24718 H 76.97055815326286 139.25295493180676 41.007402300276155 H 0.0 **** 0.06
24719 H 75.50342980299297 140.2374774925298 40.78889544930115 H 0.0 **** 0.06
24720 H 77.02844334118288 140.72902344016782 40.0139207611917 H 0.0 **** 0.06
24721 C 168.32098387392026 132.7763694170457 2.8360005752252277 C 0.0 **** -0.24
24722 H 167.66535105989237 131.91521305889106 2.970808049328184 H 0.0 **** 0.06
24723 H 169.1900959666927 132.67552008853932 3.48692014759348 H 0.0 **** 0.06
24724 H 167.7801992946865 133.6879879942384 3.090492803758167 H 0.0 **** 0.06
24725 H 168.64841000215193 132.82476470136135 1.7980214403435468 H 0.0 **** 0.06
24726 C 143.74801589568878 37.802032813427275 44.5488664727406 C 0.0 **** -0.24
24727 H 143.41199038686779 36.791880406764434 44.78309212635105 H 0.0 **** 0.06
24728 H 143.10523259482682 38.2301386296098 43.77934341810865 H 0.0 **** 0.06
24729 H 144.7759075321991 37.76858271249844 44.18718765791449 H 0.0 **** 0.06
24730 H 143.7000554122201 38.418185701340306 45.44736250370853 H 0.0 **** 0.06
24731 C 95.13133643327993 196.72221492388965 110.4612499697107 C 0.0 **** -0.24
24732 H 94.1979650646918 197.01606352813053 109.98052179308584 H 0.0 **** 0.06
24733 H 95.41862843563439 195.72760596680803 110.11884227383496 H 0.0 **** 0.06
24734 H 94.9940928527152 196.70946357230275 111.54237405094605 H 0.0 **** 0.06
24735 H 95.91308506803003 197.43619901418364 110.20174568009054 H 0.0 **** 0.06
24736 C 14.61728109827746 32.87853794850352 66.70140016371434 C 0.0 **** -0.24
24737 H 15.531466635599031 32.86933683021074 66.1076680438162 H 0.0 **** 0.06
24738 H 14.149646724223402 33.86010206860088 66.63304356186902 H 0.0 **** 0.06
24739 H 14.858250886791936 32.66193622003314 67.7423285683117 H 0.0 **** 0.06
24740 H 13.93143778318337 32.12101545613696 66.32284991541866 H 0.0 **** 0.06
24741 C 44.39035100116156 44.591321953480644 176.470546399878 C 0.0 **** -0.24
24742 H 44.38743194740513 45.678791115356205 176.54442455919104 H 0.0 **** 0.06
24743 H 44.32085700134991 44.16014493226993 177.46941158134956 H 0.0 **** 0.06
24744 H 45.314272521985544 44.26137088203865 175.99562957041866 H 0.0 **** 0.06
24745 H 43.53853753222086 44.265734600622864 175.8738770094826 H 0.0 **** 0.06
24746 C 67.86410877197008 130.34407806268075 103.93105451950112 C 0.0 **** -0.24
24747 H 67.91601499379273 129.45816903096568 103.2984585936158 H 0.0 **** 0.06
24748 H 67.12173691872437 130.18697514093003 104.71417482114225 H 0.0 **** 0.06
24749 H 67.57920649526609 131.20582238278882 103.32735997391978 H 0.0 **** 0.06
24750 H 68.838691815072 130.52426722117838 104.3837546658151 H 0.0 **** 0.06
24751 C 148.2614845766143 2.701219620394589 190.93891192329073 C 0.0 **** -0.24
24752 H 149.2194723269274 2.934184647730895 191.4057561036236 H 0.0 **** 0.06
24753 H 147.85559670945082 3.600259654705532 190.4746267214694 H 0.0 **** 0.06
24754 H 147.5676557508656 2.3367243032969327 191.6967142825727 H 0.0 **** 0.06
24755 H 148.40641841159254 1.9328725740908297 190.1787174039415 H 0.0 **** 0.06
24756 C 99.99212657126986 0.7328832695952769 69.93666600423325 C 0.0 **** -0.24
24757 H 99.6710639080959 -0.11182947914321062 70.54680274116026 H 0.0 **** 0.06
24758 H 100.48281820593058 1.4711536669938141 70.56920230772948 H 0.0 **** 0.06
24759 H 99.12384777992213 1.1844356437796932 69.45568461284358 H 0.0 **** 0.06
24760 H 100.68968087196077 0.3849828043468051 69.17485832292925 H 0.0 **** 0.06
24761 C 86.4653292552338 179.3731941195929 197.02140744130293 C 0.0 **** -0.24
24762 H 87.2645429365925 179.9604680540819 197.471459058537 H 0.0 **** 0.06
24763 H 85.76183599574838 179.06445154942787 197.795259470129 H 0.0 **** 0.06
24764 H 86.88850007429014 178.4901812633002 196.54166015988886 H 0.0 **** 0.06
24765 H 85.94561598888777 179.97653553989258 196.27709437937577 H 0.0 **** 0.06
24766 C 117.37608173024799 8.34459951303257 83.05076835169106 C 0.0 **** -0.24
24767 H 117.05519505837958 9.119898984062132 83.7466118396182 H 0.0 **** 0.06
24768 H 117.88360569895045 7.55209994271047 83.59903333699489 H 0.0 **** 0.06
24769 H 118.05859594237359 8.775544684463298 82.31809154896067 H 0.0 **** 0.06
24770 H 116.505574165615 7.933528795187222 82.53924109522382 H 0.0 **** 0.06
24771 C 121.8549158736563 80.6843605843589 173.84870853145026 C 0.0 **** -0.24
24772 H 120.83200544635707 80.6534511275284 173.47393454880674 H 0.0 **** 0.06
24773 H 121.85572336887887 80.4751623013913 174.91905433391076 H 0.0 **** 0.06
24774 H 122.27644232398978 81.674214999365 173.67132930596802 H 0.0 **** 0.06
24775 H 122.45382458422432 79.93599142104821 173.33108260135816 H 0.0 **** 0.06
24776 C 127.00867401463836 84.80321685202392 86.26176191342535 C 0.0 **** -0.24
24777 H 126.25006313781856 85.55599547088849 86.47775632630388 H 0.0 **** 0.06
24778 H 127.10500973310741 84.68363872505711 85.18320910698208 H 0.0 **** 0.06
24779 H 126.71501526051438 83.85338447974448 86.70931157137971 H 0.0 **** 0.06
24780 H 127.96449485017723 85.12053547776128 86.67911920691748 H 0.0 **** 0.06
24781 C 104.72373032754757 5.010895417071801 112.70980473248329 C 0.0 **** -0.24
24782 H 104.90844320364789 3.9403855062302284 112.62221272588218 H 0.0 **** 0.06
24783 H 105.65246037248602 5.518579153212563 112.97163755307994 H 0.0 **** 0.06
24784 H 103.98023901358374 5.189197842654828 113.48693766974029 H 0.0 **** 0.06
24785 H 104.35545156452787 5.395459159183616 111.75887825986604 H 0.0 **** 0.06
24786 C 126.7493257487919 74.86548178737995 93.58413805937175 C 0.0 **** -0.24
24787 H 127.14380966607246 73.87228781247497 93.36827036514623 H 0.0 **** 0.06
24788 H 126.76605745301117 75.03688541157729 94.6608202535896 H 0.0 **** 0.06
24789 H 125.72365061533529 74.93522428888743 93.22056522333662 H 0.0 **** 0.06
24790 H 127.3626261379907 75.61657262948366 93.08603579289348 H 0.0 **** 0.06
24791 C 191.68063240461228 100.2282622111523 42.19537460835579 C 0.0 **** -0.24
24792 H 192.71988676543504 100.5557108506959 42.202039991003744 H 0.0 **** 0.06
24793 H 191.06954018142918 100.94566493304725 42.74315130826153 H 0.0 **** 0.06
24794 H 191.60535830492836 99.24965212137991 42.671255708308365 H 0.0 **** 0.06
24795 H 191.32747266031117 100.15962808033984 41.166534858929055 H 0.0 **** 0.06
24796 C 22.48925823346991 90.65336968249858 138.6179393454069 C 0.0 **** -0.24
24797 H 22.803246274731748 91.61018663361227 138.19914399675505 H 0.0 **** 0.06
24798 H 22.75329583946737 90.61527259808997 139.67465900127243 H 0.0 **** 0.06
24799 H 22.992043306049652 89.84345184290095 138.08866157017167 H 0.0 **** 0.06
24800 H 21.410679272535447 90.54533296175367 138.50743977459604 H 0.0 **** 0.06
24801 C 129.83523760399882 84.87565402684896 190.19799760472833 C 0.0 **** -0.24
24802 H 128.98254336727243 85.33888863903815 189.70171047785342 H 0.0 **** 0.06
24803 H 129.54191164162233 84.55364602434798 191.1975352096444 H 0.0 **** 0.06
24804 H 130.64881700142476 85.59757054679395 190.27290953491195 H 0.0 **** 0.06
24805 H 130.16715584365295 84.01237270572952 189.6211420535267 H 0.0 **** 0.06
24806 C 20.904741514035933 60.952558545302594 46.87698090725658 C 0.0 **** -0.24
24807 H 20.782316478592236 62.01251803559671 47.101085091560975 H 0.0 **** 0.06
24808 H 19.980700329596573 60.56333346510718 46.448575228550055 H 0.0 **** 0.06
24809 H 21.135476636425466 60.41101763874042 47.794387269214425 H 0.0 **** 0.06
24810 H 21.718373236660625 60.823197470796345 46.163124605596096 H 0.0 **** 0.06
24811 C 151.95028565377856 53.86799131778294 87.96875274864686 C 0.0 **** -0.24
24812 H 151.57408439049954 54.89086959014334 87.96818230324902 H 0.0 **** 0.06
24813 H 151.4494551270362 53.2971720655368 88.75064074906038 H 0.0 **** 0.06
24814 H 153.0244548523584 53.87696354865584 88.15672811709385 H 0.0 **** 0.06
24815 H 151.75465580085483 53.40887921448842 86.99924940217738 H 0.0 **** 0.06
24816 C 136.8025037820459 91.40709480187456 36.31879096525262 C 0.0 **** -0.24
24817 H 137.334244736679 92.0844006676287 35.65051482222742 H 0.0 **** 0.06
24818 H 137.52208926381923 90.80515124081353 36.87381111612888 H 0.0 **** 0.06
24819 H 136.15658378179626 90.7526921302246 35.73259714060288 H 0.0 **** 0.06
24820 H 136.19682581865635 91.9864705880066 37.016046727579834 H 0.0 **** 0.06
24821 C 109.60739216573972 187.9085078370861 99.34415463738785 C 0.0 **** -0.24
24822 H 110.03025110351041 187.8046770272702 98.34456513241926 H 0.0 **** 0.06
24823 H 108.65422182729259 188.43286741512588 99.28235654730003 H 0.0 **** 0.06
24824 H 110.29514504286476 188.4760566825083 99.97153011002098 H 0.0 **** 0.06
24825 H 109.45236802088345 186.9198070848255 99.77650290861877 H 0.0 **** 0.06
24826 C 48.521117845141774 71.96524126086999 78.66442670983355 C 0.0 **** -0.24
24827 H 47.46085409922871 72.15888305500101 78.4993408398829 H 0.0 **** 0.06
24828 H 48.81491112392116 71.06685358624581 78.12123541227008 H 0.0 **** 0.06
24829 H 48.70102722447682 71.82117619041529 79.7295579424792 H 0.0 **** 0.06
24830 H 49.10479719091016 72.81346719429996 78.30873605930638 H 0.0 **** 0.06
24831 C 90.93485631072261 76.6689055782266 65.86562896133077 C 0.0 **** -0.24
24832 H 91.51429636195229 77.09976026910306 65.04964787977013 H 0.0 **** 0.06
24833 H 90.48203364678875 75.7336158051175 65.5352891729562 H 0.0 **** 0.06
24834 H 90.15128999586969 77.36691000292132 66.16218647336581 H 0.0 **** 0.06
24835 H 91.5904239294355 76.47549445376137 66.71513348303526 H 0.0 **** 0.06
24836 C 6.297190791710108 195.0159138058777 41.22781818036839 C 0.0 **** -0.24
24837 H 5.767209841919623 194.09710647370753 40.9746404069257 H 0.0 **** 0.06
24838 H 5.576656398585044 195.81901367980257 41.38642615292805 H 0.0 **** 0.06
24839 H 6.967875234821264 195.28411043762256 40.412278727127855 H 0.0 **** 0.06
24840 H 6.876205653407226 194.86137991650833 42.13831900428501 H 0.0 **** 0.06
24841 C 112.71874312753658 103.23594184276459 25.03791940181094 C 0.0 **** -0.24
24842 H 111.63012378119421 103.18307201736934 25.053488064571923 H 0.0 **** 0.06
24843 H 113.11823542816046 102.35424952358548 24.535728938466264 H 0.0 **** 0.06
24844 H 113.0946174444548 103.27344318842125 26.060756068225004 H 0.0 **** 0.06
24845 H 113.03145382622932 104.13235141618674 24.503215222435955 H 0.0 **** 0.06
24846 C 10.888199939826663 162.16628872539187 130.8709989280068 C 0.0 **** -0.24
24847 H 10.758582415022914 162.3907260305997 129.81193004889337 H 0.0 **** 0.06
24848 H 11.942026410740269 161.97381362419915 131.07434790202342 H 0.0 **** 0.06
24849 H 10.300715463349256 161.2860119975071 131.13031058709151 H 0.0 **** 0.06
24850 H 10.552552568647492 163.01657735941737 131.46518389621724 H 0.0 **** 0.06
24851 C 130.26272116369336 16.886702200062928 60.31417183762788 C 0.0 **** -0.24
24852 H 130.41221569510125 16.902541336114155 61.39351245939724 H 0.0 **** 0.06
24853 H 131.08314811269716 16.34474664846033 59.84153716992881 H 0.0 **** 0.06
24854 H 130.2355903449427 17.908176655597913 59.9353294847879 H 0.0 **** 0.06
24855 H 129.31930656908898 16.38951952109022 60.08517619915179 H 0.0 **** 0.06
24856 C 143.80564988470084 144.9069111559339 133.73349089609997 C 0.0 **** -0.24
24857 H 143.8317144322163 145.35286574058526 132.73957399036703 H 0.0 **** 0.06
24858 H 142.80977253055707 145.02852988394355 134.16088870523242 H 0.0 **** 0.06
24859 H 144.53780193958363 145.40112443092775 134.37264135171586 H 0.0 **** 0.06
24860 H 144.0446091037767 143.8461214843473 133.66142540437886 H 0.0 **** 0.06
24861 C 129.48249344478666 40.375181884116955 198.4116552009888 C 0.0 **** -0.24
24862 H 128.86798144197462 39.63123657285817 197.90404209181196 H 0.0 **** 0.06
24863 H 128.94400825917967 40.759474443271046 199.27906090657103 H 0.0 **** 0.06
24864 H 129.69940299786253 41.19455803559835 197.72691318158837 H 0.0 **** 0.06
24865 H 130.4148685665624 39.91499738081721 198.73653441844624 H 0.0 **** 0.06
24866 C 143.18556297333498 22.558903023274965 103.79861896184195 C 0.0 **** -0.24
24867 H 143.77159200195229 23.32792199944828 104.30267599368088 H 0.0 **** 0.06
24868 H 142.76862845960488 22.9663455244861 102.87822346132984 H 0.0 **** 0.06
24869 H 142.3757759081427 22.234895926962025 104.45238191106233 H 0.0 **** 0.06
24870 H 143.82586756605338 21.709407017207212 103.56404015761709 H 0.0 **** 0.06
24871 C 45.9635851758033 37.24786301642857 31.662847060544777 C 0.0 **** -0.24
24872 H 45.84342288683348 36.20746481276825 31.961984565050983 H 0.0 **** 0.06
24873 H 44.98316785007708 37.691692229347694 31.49020530005089 H 0.0 **** 0.06
24874 H 46.55054153812182 37.29608272823788 30.744938678141125 H 0.0 **** 0.06
24875 H 46.47734874331016 37.795807407220934 32.452306121774626 H 0.0 **** 0.06
24876 C 49.446963056438534 25.950573912263877 48.68764773174081 C 0.0 **** -0.24
24877 H 49.80342860598499 26.521369856470415 49.54519305870765 H 0.0 **** 0.06
24878 H 50.29853933532432 25.566534558947808 48.12679099442235 H 0.0 **** 0.06
24879 H 48.84886221189481 26.596990790571056 48.04502475434771 H 0.0 **** 0.06
24880 H 48.834969492285595 25.118287553555717 49.03531420556064 H 0.0 **** 0.06
24881 C 181.71268532003262 16.126002652857807 152.19096074342187 C 0.0 **** -0.24
24882 H 181.8531376911743 15.661242680486339 153.16746010712336 H 0.0 **** 0.06
24883 H 182.02656986539932 15.431558937157192 151.4106325211262 H 0.0 **** 0.06
24884 H 182.31134301383435 17.034907715255187 152.13244380847306 H 0.0 **** 0.06
24885 H 180.65984935599462 16.373371178683428 152.0556280986953 H 0.0 **** 0.06
24886 C 6.9788457805994994 187.86548088652364 34.99750951614166 C 0.0 **** -0.24
24887 H 6.20983599226696 188.56603187689515 35.323730220166965 H 0.0 **** 0.06
24888 H 6.7732262090786435 187.55089714172516 33.97436761944567 H 0.0 **** 0.06
24889 H 6.979088455576601 186.99480693190708 35.65342299548004 H 0.0 **** 0.06
24890 H 7.9535917677492876 188.35119427662332 35.039443263145415 H 0.0 **** 0.06
24891 C 2.078597658158685 78.95159402162679 182.41643129183115 C 0.0 **** -0.24
24892 H 1.5253295035816166 79.77075515064755 181.95667800489775 H 0.0 **** 0.06
24893 H 2.020839932821559 78.0706817970571 181.77727765235142 H 0.0 **** 0.06
24894 H 1.6458031100568746 78.72321427723645 183.39069987186662 H 0.0 **** 0.06
24895 H 3.1213752171658484 79.24306881999632 182.54139562105837 H 0.0 **** 0.06
24896 C 144.8684334065464 41.18073297851663 81.13083374790196 C 0.0 **** -0.24
24897 H 144.34488866684515 40.37898956313222 80.61241979107785 H 0.0 **** 0.06
24898 H 145.89131434097115 41.246182438593706 80.7588799037893 H 0.0 **** 0.06
24899 H 144.88361878765608 40.97379527423038 82.20040041241182 H 0.0 **** 0.06
24900 H 144.35547901294498 42.12559639969521 80.95069604265836 H 0.0 **** 0.06
24901 C 32.83558744801559 104.13558003072845 155.66172930264767 C 0.0 **** -0.24
24902 H 32.5047691600993 103.22357431543787 156.1569448940055 H 0.0 **** 0.06
24903 H 33.281616884157984 104.80611963968187 156.3960480689188 H 0.0 **** 0.06
24904 H 31.982092348245317 104.62509691173477 155.1925555369405 H 0.0 **** 0.06
24905 H 33.57457706646534 103.88740175205663 154.89925071992513 H 0.0 **** 0.06
24906 C 155.84019154691617 115.92642389471598 187.25457292159928 C 0.0 **** -0.24
24907 H 155.76352721313754 115.1999763999566 188.06319909367235 H 0.0 **** 0.06
24908 H 155.61830234563826 116.9225170718151 187.64008464574624 H 0.0 **** 0.06
24909 H 155.12856029603526 115.6731385782964 186.46958746638776 H 0.0 **** 0.06
24910 H 156.85189812010603 115.91166391387276 186.8476839176518 H 0.0 **** 0.06
24911 C 72.46525991461465 159.9587655500987 112.04462042900377 C 0.0 **** -0.24
24912 H 72.56311036996163 158.9477737499234 112.440576939811 H 0.0 **** 0.06
24913 H 72.17680905638929 159.9109857079959 110.99460477691645 H 0.0 **** 0.06
24914 H 73.4185156004014 160.47938631693867 112.1366437919603 H 0.0 **** 0.06
24915 H 71.70147168034993 160.49684223929978 112.6074993922773 H 0.0 **** 0.06
24916 C 167.71482077681358 129.40906501608555 44.81954330470279 C 0.0 **** -0.24
24917 H 168.6940864003637 129.86587202749615 44.676348067413926 H 0.0 **** 0.06
24918 H 167.7791563358275 128.64963589205664 45.59863766260486 H 0.0 **** 0.06
24919 H 167.3906413109398 128.94664791220086 43.88755952501742 H 0.0 **** 0.06
24920 H 166.99740615249814 130.1742623856694 45.114654991069415 H 0.0 **** 0.06
24921 C 118.60473128510557 78.26541705221092 132.31347456864404 C 0.0 **** -0.24
24922 H 118.2815940595165 78.96077749617959 131.53878697460505 H 0.0 **** 0.06
24923 H 118.07544439842587 78.48516575946712 133.24186868116627 H 0.0 **** 0.06
24924 H 119.67780459853918 78.37242851501732 132.47266281247494 H 0.0 **** 0.06
24925 H 118.38372314378492 77.24540810435225 132.00122178454143 H 0.0 **** 0.06
24926 C 57.31777089165189 101.23982679961907 109.3077355553977 C 0.0 **** -0.24
24927 H 57.89175171110497 101.48296154316012 108.41371139900403 H 0.0 **** 0.06
24928 H 56.39732543154241 100.73072192189895 109.02103349460413 H 0.0 **** 0.06
24929 H 57.07336968911744 102.1575903909825 109.84294834761533 H 0.0 **** 0.06
24930 H 57.90814001856643 100.58888190630904 109.95182305009496 H 0.0 **** 0.06
24931 C 9.430421556011424 178.09466165537071 142.93994768774823 C 0.0 **** -0.24
24932 H 9.478594620590485 179.14110105753514 143.2371472225741 H 0.0 **** 0.06
24933 H 8.788929734148269 177.54875321326895 143.63335445584895 H 0.0 **** 0.06
24934 H 10.43238889840049 177.6652960548898 142.95617476599432 H 0.0 **** 0.06
24935 H 9.019884923069156 178.0212492030969 141.9324929819034 H 0.0 **** 0.06
24936 C 118.99049784792922 26.625756676334248 104.17710382499564 C 0.0 **** -0.24
24937 H 119.25537337551222 26.209968106149404 103.20574010868498 H 0.0 **** 0.06
24938 H 119.51279366934978 26.078250587359747 104.96178901268848 H 0.0 **** 0.06
24939 H 117.91414124784114 26.538871248750127 104.3278887378969 H 0.0 **** 0.06
24940 H 119.27858459234412 27.677198282169826 104.21254808837051 H 0.0 **** 0.06
24941 C 113.92132393521712 109.1940521357244 14.848575174555634 C 0.0 **** -0.24
24942 H 113.99849046883281 109.73267353991503 13.903920741089536 H 0.0 **** 0.06
24943 H 114.80531299576384 108.56995146491226 14.983824574754124 H 0.0 **** 0.06
24944 H 113.03108853071433 108.56611506233628 14.83663305486013 H 0.0 **** 0.06
24945 H 113.85101636660954 109.90802164574922 15.668773962762089 H 0.0 **** 0.06
24946 C 141.03485790589866 53.788751211149815 15.728869897525442 C 0.0 **** -0.24
24947 H 141.08861640682426 53.04365639343325 14.93568429565488 H 0.0 **** 0.06
24948 H 140.3997168200271 53.41684346588943 16.53429659359594 H 0.0 **** 0.06
24949 H 140.61467081934876 54.71226888612614 15.3319308910406 H 0.0 **** 0.06
24950 H 142.03540731534804 53.98152734448601 16.115135234018624 H 0.0 **** 0.06
24951 C 96.04558914642803 180.9045148973192 82.53464963961096 C 0.0 **** -0.24
24952 H 95.7336729492252 180.7821131325466 83.57277574795376 H 0.0 **** 0.06
24953 H 95.39539789186716 180.31424219214153 81.88969993044878 H 0.0 **** 0.06
24954 H 97.0755638951778 180.56496236759494 82.42335818409339 H 0.0 **** 0.06
24955 H 95.97673400369689 181.95660204425266 82.2573478256171 H 0.0 **** 0.06
24956 C 160.99106280281825 167.71856155385143 156.8998797070231 C 0.0 **** -0.24
24957 H 160.7766801730648 167.97977942217472 155.86419444192094 H 0.0 **** 0.06
24958 H 161.88974401356018 167.1023264771976 156.94039037006388 H 0.0 **** 0.06
24959 H 160.15107771212485 167.16285971523374 157.31582703655505 H 0.0 **** 0.06
24960 H 161.14796641463778 168.62880456610446 157.47964743921375 H 0.0 **** 0.06
24961 C 7.087680000415531 51.22546224048459 155.06988580808513 C 0.0 **** -0.24
24962 H 7.051960716593328 51.418069860032105 153.99762738764952 H 0.0 **** 0.06
24963 H 7.850364283391684 50.47426584362478 155.2779539833245 H 0.0 **** 0.06
24964 H 6.117119429589053 50.86047658926496 155.4064765738548 H 0.0 **** 0.06
24965 H 7.332387441613179 52.14772402710278 155.59728334144108 H 0.0 **** 0.06
24966 C 195.5602540706283 45.45195730410967 110.95561473950278 C 0.0 **** -0.24
24967 H 195.7929837017221 46.49305742606853 111.18007663918979 H 0.0 **** 0.06
24968 H 194.56412007691318 45.388967182385244 110.5199210974283 H 0.0 **** 0.06
24969 H 195.59350131345673 44.867267380277895 111.87485137560552 H 0.0 **** 0.06
24970 H 196.29242178406113 45.06045275654617 110.25011754694899 H 0.0 **** 0.06
24971 C 190.85667746594243 90.99144002180154 28.496187826075072 C 0.0 **** -0.24
24972 H 189.9469263703728 90.40825749641999 28.354908811259406 H 0.0 **** 0.06
24973 H 190.60484014150666 92.05182295903973 28.548156310290352 H 0.0 **** 0.06
24974 H 191.53283807007756 90.8196970721743 27.658145524940835 H 0.0 **** 0.06
24975 H 191.3427421759976 90.68757169000767 29.42327779833073 H 0.0 **** 0.06
24976 C 115.46556472356133 112.61907542424589 15.514637725041212 C 0.0 **** -0.24
24977 H 115.88726577137703 111.68522336805538 15.886980652258444 H 0.0 **** 0.06
24978 H 114.58441879579976 112.40352364876208 14.90847106782391 H 0.0 **** 0.06
24979 H 116.20829613575506 113.13489458103126 14.904795645382762 H 0.0 **** 0.06
24980 H 115.18315908491763 113.25178445821174 16.35477400469341 H 0.0 **** 0.06
24981 C 148.53995936818433 46.710014815344564 137.29880684459528 C 0.0 **** -0.24
24982 H 148.27619175871345 47.761909611850854 137.1836995310707 H 0.0 **** 0.06
24983 H 148.3209346969935 46.3906007497433 138.3185350280167 H 0.0 **** 0.06
24984 H 149.602828729008 46.57886803290425 137.0971638092824 H 0.0 **** 0.06
24985 H 147.96005161269417 46.111307121282806 136.59758238764715 H 0.0 **** 0.06
24986 C 133.43486762849153 164.15433596274036 36.7650162800571 C 0.0 **** -0.24
24987 H 133.53320480728783 165.0603490765675 37.3633445581371 H 0.0 **** 0.06
24988 H 134.4213443458814 163.82553241160403 36.43946663053646 H 0.0 **** 0.06
24989 H 132.81367265905624 164.36138175747897 35.89326543027195 H 0.0 **** 0.06
24990 H 132.96969222985564 163.37155262969011 37.36462931918385 H 0.0 **** 0.06
24991 C 198.5062584899776 0.653755708005896 63.7893788822104 C 0.0 **** -0.24
24992 H 198.77885405956476 1.7008554920207004 63.65943901355307 H 0.0 **** 0.06
24993 H 199.1660302956031 0.02974212635299267 63.185868389878195 H 0.0 **** 0.06
24994 H 197.47406635901638 0.5056361627076384 63.471944341080416 H 0.0 **** 0.06
24995 H 198.6066737590304 0.379815273351781 64.83949034730156 H 0.0 **** 0.06
24996 C 44.78957581594419 47.51717269509987 110.7535475440863 C 0.0 **** -0.24
24997 H 44.07210945835686 46.99742865253978 111.38756237954371 H 0.0 **** 0.06
24998 H 45.010583563010854 46.90616896978091 109.87806726603912 H 0.0 **** 0.06
24999 H 45.70793039672505 47.69465227336747 111.31440811007542 H 0.0 **** 0.06
25000 H 44.36918876307868 48.47097732132872 110.43481232136267 H 0.0 **** 0.06
25001 C 39.654332014566705 37.956714670633545 175.18663018908575 C 0.0 **** -0.24
25002 H 39.12553014541541 37.6807132292886 174.27376465016678 H 0.0 **** 0.06
25003 H 39.206841166213394 37.438677397906844 176.03537574931474 H 0.0 **** 0.06
25004 H 39.58207614322271 39.03303830325393 175.33743195700325 H 0.0 **** 0.06
25005 H 40.70269369700617 37.67147489610643 175.0981500251637 H 0.0 **** 0.06
25006 C 158.1139928601259 159.68126031020012 46.554412973411644 C 0.0 **** -0.24
25007 H 157.7640234182918 160.25736683982245 45.69789307491919 H 0.0 **** 0.06
25008 H 157.99251850217115 158.61767911055952 46.35078173842473 H 0.0 **** 0.06
25009 H 157.5325307326553 159.95241983779613 47.435987702134526 H 0.0 **** 0.06
25010 H 159.16635358514645 159.89985250024083 46.73226969882094 H 0.0 **** 0.06
25011 C 135.51887285829673 54.71586491323558 9.262381900420849 C 0.0 **** -0.24
25012 H 135.33017244953285 54.23199775212936 8.304327414656541 H 0.0 **** 0.06
25013 H 135.8574251708498 55.73779084011966 9.092698647889677 H 0.0 **** 0.06
25014 H 136.2882860305198 54.16371428983473 9.802329813177494 H 0.0 **** 0.06
25015 H 134.60123612312123 54.728608437923526 9.849443294426294 H 0.0 **** 0.06
25016 C 8.010664080340831 89.22312038957023 31.412414733049786 C 0.0 **** -0.24
25017 H 8.480970872272167 88.28905350713546 31.71851642703149 H 0.0 **** 0.06
25018 H 7.344871136418078 89.03471742853606 30.568853347322943 H 0.0 **** 0.06
25019 H 8.77922298569689 89.93732639717956 31.116810823803803 H 0.0 **** 0.06
25020 H 7.435697855109083 89.63073308917774 32.24448289747673 H 0.0 **** 0.06
25021 C 16.46925677709453 100.88325808122869 138.82797786119568 C 0.0 **** -0.24
25022 H 16.604869787804546 101.04742694730294 139.89618680168942 H 0.0 **** 0.06
25023 H 16.106057568503616 101.79996112027689 138.36239373840206 H 0.0 **** 0.06
25024 H 15.74318327681533 100.08432745289389 138.6730493766434 H 0.0 **** 0.06
25025 H 17.421880366822336 100.59911554353616 138.37999681864227 H 0.0 **** 0.06
25026 C 83.25220019907391 97.06079692328572 85.61061339933906 C 0.0 **** -0.24
25027 H 82.2504535633964 97.28075200926313 85.97793491012123 H 0.0 **** 0.06
25028 H 83.33555109839543 97.38014020020799 84.57183614752671 H 0.0 **** 0.06
25029 H 83.43665297528406 95.98840276949824 85.67736400510984 H 0.0 **** 0.06
25030 H 83.98614315921964 97.59389271417345 86.21531853459834 H 0.0 **** 0.06
25031 C 108.93987030553421 72.07319740565578 10.79658332261178 C 0.0 **** -0.24
25032 H 108.44200555184375 72.01988664494274 11.764770975953354 H 0.0 **** 0.06
25033 H 109.93705695603364 71.6410964893164 10.877002553963308 H 0.0 **** 0.06
25034 H 109.0185905897481 73.11456758674092 10.484650730760904 H 0.0 **** 0.06
25035 H 108.35994147825289 71.51658288724286 10.059807553197516 H 0.0 **** 0.06
25036 C 133.27991196269272 120.88850515561666 169.65956165313483 C 0.0 **** -0.24
25037 H 133.84282813608775 120.30262410208704 170.3854868789582 H 0.0 **** 0.06
25038 H 133.56950612499128 120.59227364172077 168.6508665481164 H 0.0 **** 0.06
25039 H 133.49521648588654 121.94737749598912 169.80188524702638 H 0.0 **** 0.06
25040 H 132.2139006111536 120.71206210522735 169.79872452262484 H 0.0 **** 0.06
25041 C 178.08767384623957 170.49279120266502 108.54969722044365 C 0.0 **** -0.24
25042 H 178.26955463095757 169.53658947026287 108.05928075936583 H 0.0 **** 0.06
25043 H 177.41462248814094 171.09352763207542 107.93628028342926 H 0.0 **** 0.06
25044 H 179.032557342383 171.0217054740414 108.67785561288474 H 0.0 **** 0.06
25045 H 177.63312401083564 170.31978758752877 109.52505401338016 H 0.0 **** 0.06
25046 C 111.5453844840265 114.3271804383171 36.38097459264664 C 0.0 **** -0.24
25047 H 112.54191701727245 113.92204003546411 36.55601127771759 H 0.0 **** 0.06
25048 H 111.23752512542913 114.10467736907702 35.35944207940972 H 0.0 **** 0.06
25049 H 111.56068036577057 115.40629530307686 36.52948990634151 H 0.0 **** 0.06
25050 H 110.8421994377037 113.87389189337907 37.079243849737324 H 0.0 **** 0.06
25051 C 34.253712106079675 196.32241087193592 140.42544528224815 C 0.0 **** -0.24
25052 H 34.66652906091532 197.27624103089312 140.75353348164407 H 0.0 **** 0.06
25053 H 34.49831260183514 196.16164919692056 139.3750829725415 H 0.0 **** 0.06
25054 H 33.170220959547166 196.3339425772674 140.5493713347576 H 0.0 **** 0.06
25055 H 34.67922777316453 195.51716608206561 141.02492167382036 H 0.0 **** 0.06
25056 C 181.88556421758975 97.39785268583611 92.89522633549473 C 0.0 **** -0.24
25057 H 182.73471747404318 97.98205485390167 92.5421112928608 H 0.0 **** 0.06
25058 H 182.18958290084794 96.35834672177103 93.0258391815376 H 0.0 **** 0.06
25059 H 181.07792507788096 97.45205392046381 92.16559909017963 H 0.0 **** 0.06
25060 H 181.54144922447614 97.7983641441424 93.84815608086905 H 0.0 **** 0.06
25061 C 2.3220543885601685 121.53887704669194 57.25106701346918 C 0.0 **** -0.24
25062 H 2.613941193515842 122.47024504146339 57.73446270555195 H 0.0 **** 0.06
25063 H 2.606805219319959 120.69684521097963 57.883565297048904 H 0.0 **** 0.06
25064 H 2.8241180020023577 121.4560229887611 56.28706856007537 H 0.0 **** 0.06
25065 H 1.2427218481206523 121.53098542548332 57.09995557621568 H 0.0 **** 0.06
25066 C 22.38747838582725 13.016399111669543 193.87865222019465 C 0.0 **** -0.24
25067 H 22.304841966790008 12.753463318732884 192.8242103455064 H 0.0 **** 0.06
25068 H 21.685193425626835 13.816408273492016 194.11013187350767 H 0.0 **** 0.06
25069 H 23.40316776455171 13.351361420785132 194.09099872319769 H 0.0 **** 0.06
25070 H 22.159068502276853 12.142802287174057 194.48922014957358 H 0.0 **** 0.06
25071 C 15.11275810237322 184.7475235489357 83.30828484459562 C 0.0 **** -0.24
25072 H 15.109194658183469 185.01979496911514 82.25334492448144 H 0.0 **** 0.06
25073 H 14.148978190016578 184.3133611364554 83.57459850657659 H 0.0 **** 0.06
25074 H 15.291033276276323 185.63751245673922 83.9125541621836 H 0.0 **** 0.06
25075 H 15.903114453634657 184.0188655068448 83.49247770269261 H 0.0 **** 0.06
25076 C 129.39841552968593 138.36687595600756 160.64342583914944 C 0.0 **** -0.24
25077 H 128.3640309610562 138.3461428629685 160.9848439997843 H 0.0 **** 0.06
25078 H 129.4309559971894 138.17468569890372 159.5708850657907 H 0.0 **** 0.06
25079 H 129.96828304860222 137.5990685966208 161.16704360017985 H 0.0 **** 0.06
25080 H 129.83037997145166 139.34472748260808 160.85177351515472 H 0.0 **** 0.06
25081 C 95.34705413506771 150.3587179803844 140.2155803021097 C 0.0 **** -0.24
25082 H 95.55794573084722 149.74197465517628 139.34172671261325 H 0.0 **** 0.06
25083 H 94.48316502424882 149.95511398230775 140.74508396697888 H 0.0 **** 0.06
25084 H 95.13342457165311 151.37901889800222 139.89545352760638 H 0.0 **** 0.06
25085 H 96.21260569377591 150.3596564037049 140.87722014066003 H 0.0 **** 0.06
25086 C 187.03709955852736 123.70335306095149 165.27395482613127 C 0.0 **** -0.24
25087 H 186.04649508655186 124.12492341263817 165.10622623444624 H 0.0 **** 0.06
25088 H 187.1828978391883 123.53271718770156 166.34145376379456 H 0.0 **** 0.06
25089 H 187.79357912324764 124.39798276171541 164.90976405980524 H 0.0 **** 0.06
25090 H 187.12426013971634 122.75720701996886 164.7401923549137 H 0.0 **** 0.06
25091 C 63.3399516789741 124.96096231229683 22.268122300797685 C 0.0 **** -0.24
25092 H 63.29680502985752 125.7653974463733 21.534526946899362 H 0.0 **** 0.06
25093 H 62.904667619123586 124.05717890549823 21.84062839018823 H 0.0 **** 0.06
25094 H 62.779368292336756 125.24958540545231 23.157322875427383 H 0.0 **** 0.06
25095 H 64.37848651853395 124.771372746378 22.53784965844619 H 0.0 **** 0.06
25096 C 158.28532731441854 45.53056970036059 23.165715626062166 C 0.0 **** -0.24
25097 H 158.04731764171714 45.180612513471885 24.170403664380444 H 0.0 **** 0.06
25098 H 157.72729793042978 44.94353816919198 22.435758855906784 H 0.0 **** 0.06
25099 H 159.35385931417716 45.41559749351495 22.98568667262043 H 0.0 **** 0.06
25100 H 158.01243687285847 46.58145196766162 23.07293127922665 H 0.0 **** 0.06
25101 C 151.99217411161604 107.71543803255497 187.85408926402397 C 0.0 **** -0.24
25102 H 151.20966824036458 108.16923786954357 188.46138073362775 H 0.0 **** 0.06
25103 H 152.50194840454336 108.48920160833947 187.28014085248068 H 0.0 **** 0.06
25104 H 151.5484003219745 106.99033706071793 187.1717637622793 H 0.0 **** 0.06
25105 H 152.7096367305587 107.21198297580042 188.50275797591672 H 0.0 **** 0.06
25106 C 0.3718912285469571 39.922551867445236 101.60232528695363 C 0.0 **** -0.24
25107 H 0.23834799837284493 40.06568722211469 102.67442889675874 H 0.0 **** 0.06
25108 H -0.2969093350331704 39.13496590059697 101.25447928122745 H 0.0 **** 0.06
25109 H 1.404733959006812 39.6386454340323 101.4002344266512 H 0.0 **** 0.06
25110 H 0.14205035068385996 40.85159650361608 101.0816056929985 H 0.0 **** 0.06
25111 C 65.49025936195687 153.11054522418667 129.22021276783704 C 0.0 **** -0.24
25112 H 65.88505912464149 152.09928406345753 129.13035364562444 H 0.0 **** 0.06
25113 H 64.49571343302111 153.153216325039 128.77517650625356 H 0.0 **** 0.06
25114 H 66.15048252269594 153.80588248459242 128.70078791458238 H 0.0 **** 0.06
25115 H 65.42986422675176 153.38530651697053 130.27368576712098 H 0.0 **** 0.06
25116 C 118.16352769892276 110.35233795590835 32.32346014509682 C 0.0 **** -0.24
25117 H 118.52464290036002 111.32246607414808 31.981591844665587 H 0.0 **** 0.06
25118 H 117.0788248174589 110.38401853323185 32.428363399642876 H 0.0 **** 0.06
25119 H 118.61515311616378 110.11704639567063 33.28744357705904 H 0.0 **** 0.06
25120 H 118.43739537707523 109.5869343742676 31.597504547884967 H 0.0 **** 0.06
25121 C 91.01997871475709 139.2231384222755 100.10397577810713 C 0.0 **** -0.24
25122 H 91.87645218957195 138.71911560651262 99.65560887296354 H 0.0 **** 0.06
25123 H 91.28754614927715 140.2535053258315 100.33888725398205 H 0.0 **** 0.06
25124 H 90.73173427797542 138.70527769938826 101.01892392145308 H 0.0 **** 0.06
25125 H 90.18635632149991 139.21452896132905 99.40299059440963 H 0.0 **** 0.06
25126 C 127.05811062484395 119.87910567745524 135.04625322172413 C 0.0 **** -0.24
25127 H 126.73160675187336 118.86369658193905 135.2703943996344 H 0.0 **** 0.06
25128 H 127.6321084871741 120.27041954333814 135.88633809835332 H 0.0 **** 0.06
25129 H 126.18562008148191 120.51107577713148 134.8756960111702 H 0.0 **** 0.06
25130 H 127.68121228888518 119.87191090625919 134.1516112561234 H 0.0 **** 0.06
25131 C 141.2115538285292 116.54173009191965 91.46554315945241 C 0.0 **** -0.24
25132 H 140.85503317691905 115.68301135165015 92.03390468195369 H 0.0 **** 0.06
25133 H 142.20546012756802 116.82117400774783 91.81467356933172 H 0.0 **** 0.06
25134 H 140.52790395822694 117.37898878709885 91.60616824843441 H 0.0 **** 0.06
25135 H 141.25781805140264 116.28374622118173 90.40742613808993 H 0.0 **** 0.06
25136 C 33.69710620142189 166.7889107631127 177.57593529293416 C 0.0 **** -0.24
25137 H 32.722468310355566 166.33438877860772 177.75238477386844 H 0.0 **** 0.06
25138 H 33.69982581001125 167.80587204339068 177.9702994341758 H 0.0 **** 0.06
25139 H 33.898445000479 166.8138979064357 176.50459779671837 H 0.0 **** 0.06
25140 H 34.467566341885515 166.20360979440144 178.07714344833863 H 0.0 **** 0.06
25141 C 55.91672651086316 106.70724315783065 132.73315728407732 C 0.0 **** -0.24
25142 H 56.62450384038084 107.278778918304 133.3342943960279 H 0.0 **** 0.06
25143 H 56.4339253732515 105.8746034491918 132.2572811278406 H 0.0 **** 0.06
25144 H 55.486806207565905 107.35362874580562 131.96850450645718 H 0.0 **** 0.06
25145 H 55.12268809937876 106.32447807884688 133.37445486034812 H 0.0 **** 0.06
25146 C 141.45272231307698 163.70253800041337 194.11720970878733 C 0.0 **** -0.24
25147 H 141.50951850301877 162.63409927637005 194.32507641079803 H 0.0 **** 0.06
25148 H 141.45812505301308 163.86310681198557 193.0391896969363 H 0.0 **** 0.06
25149 H 142.309694566263 164.2059284916667 194.5648214313352 H 0.0 **** 0.06
25150 H 140.5324246451178 164.10555572325563 194.54052237072415 H 0.0 **** 0.06
25151 C 177.06202797444558 140.14601385706592 31.73421957768386 C 0.0 **** -0.24
25152 H 178.0400175413613 140.08194943917724 31.25795617954708 H 0.0 **** 0.06
25153 H 176.4080073461071 139.37485196571185 31.325796926476897 H 0.0 **** 0.06
25154 H 176.62878944159246 141.12794836250035 31.545434857251735 H 0.0 **** 0.06
25155 H 177.17117457655786 139.9984081613095 32.808776354224364 H 0.0 **** 0.06
25156 C 124.97503003398958 160.7627097261261 35.66953701881603 C 0.0 **** -0.24
25157 H 125.07356347796207 160.82138093023036 36.753629053259615 H 0.0 **** 0.06
25158 H 125.9565093822894 160.88055972404328 35.20909226326971 H 0.0 **** 0.06
25159 H 124.31278782317503 161.55541064722138 35.32138735670546 H 0.0 **** 0.06
25160 H 124.55812128590898 159.793978172554 35.39391053632944 H 0.0 **** 0.06
25161 C 182.425888477184 127.00232576478712 55.90486160477974 C 0.0 **** -0.24
25162 H 182.3776711605587 126.34800506426268 56.7758565617043 H 0.0 **** 0.06
25163 H 182.86989470346714 127.95555236409888 56.19120440046527 H 0.0 **** 0.06
25164 H 181.42032091078028 127.16967226257884 55.521235923537915 H 0.0 **** 0.06
25165 H 183.0357722110134 126.53402673915596 55.133099005458746 H 0.0 **** 0.06
25166 C 52.59355733573696 194.828133920919 56.37075266780198 C 0.0 **** -0.24
25167 H 52.79717487777529 194.06923266973624 57.12654925488599 H 0.0 **** 0.06
25168 H 52.43468385021154 194.34541052981552 55.405961992666164 H 0.0 **** 0.06
25169 H 53.44126912498652 195.50834004131784 56.30149954503878 H 0.0 **** 0.06
25170 H 51.69988572731344 195.38666194242484 56.64940871215731 H 0.0 **** 0.06
25171 C 155.60905361043336 17.61605856350259 91.95658904281655 C 0.0 **** -0.24
25172 H 155.51801115623306 16.820301299408555 91.21745013507172 H 0.0 **** 0.06
25173 H 155.09136641527857 18.505880812515528 91.59775060407259 H 0.0 **** 0.06
25174 H 156.66261771577155 17.846385858212727 92.11297217058535 H 0.0 **** 0.06
25175 H 155.16448096490268 17.290327927614655 92.89780869372666 H 0.0 **** 0.06
25176 C 162.0419740797646 83.37373522939635 14.285267057474982 C 0.0 **** -0.24
25177 H 162.43400067766393 82.80134710919842 13.44445276608252 H 0.0 **** 0.06
25178 H 162.4778317230814 84.37298125112045 14.278397267332622 H 0.0 **** 0.06
25179 H 162.300333166257 82.87144006842081 15.218176947787072 H 0.0 **** 0.06
25180 H 160.95834165190465 83.4477573562244 14.20046645005715 H 0.0 **** 0.06
25181 C 185.09311614416157 147.5640217113655 50.804361541527044 C 0.0 **** -0.24
25182 H 184.8453619987693 146.67768283334647 51.3878689923782 H 0.0 **** 0.06
25183 H 186.10447771019605 147.88766582909304 51.047501254758345 H 0.0 **** 0.06
25184 H 184.38890725577963 148.36229325663962 51.038997570335425 H 0.0 **** 0.06
25185 H 185.03209917489798 147.3275012949463 49.741857558129624 H 0.0 **** 0.06
25186 C 134.42498454474213 36.66014135384758 27.57608648786936 C 0.0 **** -0.24
25187 H 134.16961476674155 35.64386508652173 27.878304181962108 H 0.0 **** 0.06
25188 H 135.40294030643238 36.924062989793 27.97962037449787 H 0.0 **** 0.06
25189 H 133.6750800945392 37.35140032932907 27.958187240977168 H 0.0 **** 0.06
25190 H 134.45247346224528 36.71824196498626 26.48826327267517 H 0.0 **** 0.06
25191 C 54.823295572066286 156.46288177114383 107.87591034372278 C 0.0 **** -0.24
25192 H 55.610010044094054 156.77155083431066 107.1870486415072 H 0.0 **** 0.06
25193 H 53.852907590177125 156.5688113617299 107.39045511586329 H 0.0 **** 0.06
25194 H 54.85449846446903 157.0903821080743 108.76723767563197 H 0.0 **** 0.06
25195 H 54.976934499642994 155.42206087865694 108.15886017608767 H 0.0 **** 0.06
25196 C 37.44642486866604 158.78275140241638 112.83438465686353 C 0.0 **** -0.24
25197 H 38.0054754843398 158.14431501563303 112.14982853381284 H 0.0 **** 0.06
25198 H 36.84004874836728 158.16348530507963 113.49485734268794 H 0.0 **** 0.06
25199 H 36.798999746727645 159.44844167911768 112.26285262129105 H 0.0 **** 0.06
25200 H 38.14296363437958 159.37491827819363 113.42833316662146 H 0.0 **** 0.06
25201 C 163.93725941621182 157.6627969660127 137.59827728864673 C 0.0 **** -0.24
25202 H 162.8824212716981 157.81640522328462 137.8268985565099 H 0.0 **** 0.06
25203 H 164.37901988267717 157.004624142061 138.3467510131277 H 0.0 **** 0.06
25204 H 164.4546510619265 158.62317885596752 137.60745531480245 H 0.0 **** 0.06
25205 H 164.03307962562985 157.20918998688433 136.6123148878341 H 0.0 **** 0.06
25206 C 135.00333538552863 74.66873493136491 15.074843797897259 C 0.0 **** -0.24
25207 H 135.48240964845638 75.32453532301982 15.8005333585037 H 0.0 **** 0.06
25208 H 135.62761523583316 74.59549931756128 14.183621085527768 H 0.0 **** 0.06
25209 H 134.02919628848286 75.07705433132257 14.80381798417153 H 0.0 **** 0.06
25210 H 134.87360611676647 73.6783359404565 15.510177944544822 H 0.0 **** 0.06
25211 C 149.1730376906526 61.16450392821878 163.79146789260784 C 0.0 **** -0.24
25212 H 148.19776242797496 61.332719230746164 163.3338878753019 H 0.0 **** 0.06
25213 H 149.83411699843364 60.68361178253315 163.0691129811394 H 0.0 **** 0.06
25214 H 149.05905380605472 60.52209948984421 164.66448672873042 H 0.0 **** 0.06
25215 H 149.60079326770645 62.12021039683606 164.0953132591795 H 0.0 **** 0.06
25216 C 144.68757928840307 64.53717538401685 106.39177145975057 C 0.0 **** -0.24
25217 H 144.42627507212012 65.17543354700331 107.23561344618204 H 0.0 **** 0.06
25218 H 144.88523550798794 63.525503111897365 106.74931581280572 H 0.0 **** 0.06
25219 H 145.57810852471707 64.9302722444695 105.90088121806156 H 0.0 **** 0.06
25220 H 143.86018017605224 64.51714505950156 105.68289124114219 H 0.0 **** 0.06
25221 C 113.76778179018552 115.66087173375513 107.79085147921046 C 0.0 **** -0.24
25222 H 113.72215773309122 115.06746624520409 106.87732202272878 H 0.0 **** 0.06
25223 H 113.64147211735624 116.71569678263418 107.54485211484922 H 0.0 **** 0.06
25224 H 114.7348169594982 115.51280932447071 108.27118904816678 H 0.0 **** 0.06
25225 H 112.97407472230654 115.34732371174914 108.46830508773576 H 0.0 **** 0.06
25226 C 12.08942061778771 63.28769289127743 63.556254883622955 C 0.0 **** -0.24
25227 H 12.465559185860563 62.72813792079991 64.41265531147604 H 0.0 **** 0.06
25228 H 11.445709400201572 62.64517400852408 62.956124881249934 H 0.0 **** 0.06
25229 H 12.927412545257944 63.6318336867611 62.949802633085994 H 0.0 **** 0.06
25230 H 11.519318375573661 64.14795071737689 63.907140320893006 H 0.0 **** 0.06
25231 C 125.37629226877507 0.22618522523637807 67.2309533400014 C 0.0 **** -0.24
25232 H 124.73825053838965 -0.27494839891327416 66.50197902185522 H 0.0 **** 0.06
25233 H 125.22989352216726 1.303677169215618 67.16156903878874 H 0.0 **** 0.06
25234 H 126.41910715006259 -0.013807206810419359 67.02531428260198 H 0.0 **** 0.06
25235 H 125.11679580044208 -0.1126633266032826 68.2341910664934 H 0.0 **** 0.06
25236 C 57.53685854092622 55.82118853577555 42.00628593067205 C 0.0 **** -0.24
25237 H 56.78563914383359 56.26068459744434 42.66201094751926 H 0.0 **** 0.06
25238 H 57.962646546014795 56.59896284716916 41.37037443381121 H 0.0 **** 0.06
25239 H 57.072619188901314 55.057088712889 41.383373455629794 H 0.0 **** 0.06
25240 H 58.325516892855774 55.37091874419329 42.607497839667076 H 0.0 **** 0.06
25241 C 134.13560901628443 170.6724670523916 175.69235233618343 C 0.0 **** -0.24
25242 H 134.83703527922717 169.9090147404807 175.356250504317 H 0.0 **** 0.06
25243 H 133.15060866314548 170.47179422620277 175.2686490851585 H 0.0 **** 0.06
25244 H 134.48012275276642 171.65250963589816 175.3620350551876 H 0.0 **** 0.06
25245 H 134.07441527153128 170.65523277956126 176.78042493686343 H 0.0 **** 0.06
25246 C 112.1038920132776 100.41325839135285 127.11361279619524 C 0.0 **** -0.24
25247 H 111.22295293349114 100.98244060562683 126.81856262279274 H 0.0 **** 0.06
25248 H 111.90942017414272 99.90901168821404 128.06041829767048 H 0.0 **** 0.06
25249 H 112.95153549944101 101.08865303041631 127.22946737632265 H 0.0 **** 0.06
25250 H 112.33104081598776 99.6730251649482 126.34727093605238 H 0.0 **** 0.06
25251 C 173.86734428523647 116.60751284540154 175.44729818234643 C 0.0 **** -0.24
25252 H 173.27560767180302 115.694624504432 175.37971609004492 H 0.0 **** 0.06
25253 H 173.2844207354463 117.38265296869466 175.94570527220358 H 0.0 **** 0.06
25254 H 174.13523343178747 116.94247271264746 174.44553575461717 H 0.0 **** 0.06
25255 H 174.77467174343985 116.41054041394852 176.0195135760361 H 0.0 **** 0.06
25256 C 16.001678867289314 26.574645463136022 87.668178872373 C 0.0 **** -0.24
25257 H 16.28249848226237 27.321979561450647 86.92599373783074 H 0.0 **** 0.06
25258 H 15.909358021451652 25.60087483912703 87.18574406258233 H 0.0 **** 0.06
25259 H 15.048118023328726 26.850653773710334 88.11801862770628 H 0.0 **** 0.06
25260 H 16.768460262449295 26.525639258464253 88.44164598685163 H 0.0 **** 0.06
25261 C 125.3056078744261 66.10790328440368 132.8621218130299 C 0.0 **** -0.24
25262 H 125.67216456420408 65.2799511391604 133.46957068918277 H 0.0 **** 0.06
25263 H 125.6526981386562 67.05054767626609 133.2852300505058 H 0.0 **** 0.06
25264 H 124.21576880992512 66.09362367984255 132.84956837131529 H 0.0 **** 0.06
25265 H 125.68245447009218 66.00513043399809 131.8441527158733 H 0.0 **** 0.06
25266 C 94.62473664535517 182.34920836812177 141.91421461434834 C 0.0 **** -0.24
25267 H 94.81949211603254 181.57609450824728 142.65703217858655 H 0.0 **** 0.06
25268 H 94.59100821952276 181.89869028572133 140.92262320809198 H 0.0 **** 0.06
25269 H 95.41895410745019 183.09502436198719 141.94908310273914 H 0.0 **** 0.06
25270 H 93.66792977644786 182.82649258661536 142.1292497355832 H 0.0 **** 0.06
25271 C 185.45363826950083 31.781946575470158 5.360869956529939 C 0.0 **** -0.24
25272 H 185.1127793059634 31.811254250248496 4.32590913052843 H 0.0 **** 0.06
25273 H 186.42440172610142 32.272024169675234 5.436955110183703 H 0.0 **** 0.06
25274 H 185.54387022503477 30.744193532637325 5.6835749651828 H 0.0 **** 0.06
25275 H 184.73487496187508 32.298851118169296 5.995635782805891 H 0.0 **** 0.06
25276 C 14.429810033692036 35.101963863341766 4.1474396346324625 C 0.0 **** -0.24
25277 H 14.86927741396471 34.32742977823703 4.77659309094534 H 0.0 **** 0.06
25278 H 15.145840743034114 35.394122688085645 3.3780093457274916 H 0.0 **** 0.06
25279 H 14.179216871157905 35.968242445803114 4.759050744352521 H 0.0 **** 0.06
25280 H 13.526025432434835 34.71622325040424 3.675497623588484 H 0.0 **** 0.06
25281 C 28.94707178984578 185.8413365842997 122.13509088285568 C 0.0 **** -0.24
25282 H 28.261687687594588 186.51528824420598 121.62149136266453 H 0.0 **** 0.06
25283 H 28.50973582582128 185.5339656921609 123.08603521000904 H 0.0 **** 0.06
25284 H 29.89230558729969 186.35256257190173 122.31784411150639 H 0.0 **** 0.06
25285 H 29.123650500165922 184.96205624025325 121.51492257045496 H 0.0 **** 0.06
25286 C 6.476384754203195 115.22387763181297 173.52654566411996 C 0.0 **** -0.24
25287 H 6.7981509842872185 115.71251625596713 174.44674971299264 H 0.0 **** 0.06
25288 H 5.486462204799324 115.58884603961292 173.24930545946137 H 0.0 **** 0.06
25289 H 6.435138462848897 114.14643610725241 173.68309969655144 H 0.0 **** 0.06
25290 H 7.183364667068133 115.44866441484004 172.7288233081364 H 0.0 **** 0.06
25291 C 179.36077167444822 103.51904728366938 27.270170655807945 C 0.0 **** -0.24
25292 H 179.9477119401723 103.3355695466222 28.169908794346156 H 0.0 **** 0.06
25293 H 178.34255670857053 103.16092795680188 27.422238121246878 H 0.0 **** 0.06
25294 H 179.81034126932988 102.98973203675098 26.429700999311805 H 0.0 **** 0.06
25295 H 179.34384632926879 104.58820057140156 27.05866069726831 H 0.0 **** 0.06
25296 C 79.67936153742019 20.343877638804486 141.87122226275525 C 0.0 **** -0.24
25297 H 78.89252628153238 21.089406641599254 141.75603341627829 H 0.0 **** 0.06
25298 H 79.40142678896333 19.437098837009245 141.3330408947497 H 0.0 **** 0.06
25299 H 79.80905025173104 20.113685032253784 142.92855233236085 H 0.0 **** 0.06
25300 H 80.6127797972859 20.73576883332271 141.46708079272767 H 0.0 **** 0.06
25301 C 170.24043093859578 108.09326508183855 101.19232919324355 C 0.0 **** -0.24
25302 H 170.33349391842796 107.03009703194914 100.96848620536076 H 0.0 **** 0.06
25303 H 169.5879275460461 108.5635440525974 100.45615277994813 H 0.0 **** 0.06
25304 H 171.22591860512816 108.55832667217538 101.15646176031532 H 0.0 **** 0.06
25305 H 169.81546631388548 108.21836797311036 102.18885216972058 H 0.0 **** 0.06
25306 C 90.27590358456462 23.240072735894714 2.585844798067086 C 0.0 **** -0.24
25307 H 90.2992591506129 23.48410212220257 1.5240591110576247 H 0.0 **** 0.06
25308 H 89.29075598721312 22.854397355985114 2.8477806492124103 H 0.0 **** 0.06
25309 H 90.48229401054789 24.137926768790877 3.168875519509754 H 0.0 **** 0.06
25310 H 91.03153812742832 22.48592252795065 2.8018205985979137 H 0.0 **** 0.06
25311 C 75.40396683248053 177.34155153613835 148.21255327052728 C 0.0 **** -0.24
25312 H 75.33254381262053 178.35847130036282 148.59820158757822 H 0.0 **** 0.06
25313 H 74.65974725501414 176.71405747831585 148.70361245663983 H 0.0 **** 0.06
25314 H 76.39998803080533 176.94780612254888 148.4097738537167 H 0.0 **** 0.06
25315 H 75.22088740049324 177.3469514764125 147.1373846904767 H 0.0 **** 0.06
25316 C 32.525830741932765 104.3091929248709 119.49760876722746 C 0.0 **** -0.24
25317 H 33.42983694932835 104.91590649823291 119.55005968462362 H 0.0 **** 0.06
25318 H 31.732117381903308 104.79036274486498 120.06922873894615 H 0.0 **** 0.06
25319 H 32.72684661234159 103.32159263131555 119.91352820217264 H 0.0 **** 0.06
25320 H 32.21550091288697 104.20788994591268 118.45757761923645 H 0.0 **** 0.06
25321 C 130.42522669114726 2.828323913694362 65.90877487693604 C 0.0 **** -0.24
25322 H 129.390273203275 2.4889056563587246 65.95530675239513 H 0.0 **** 0.06
25323 H 130.80901473003667 2.690013544200781 64.89792193592336 H 0.0 **** 0.06
25324 H 131.02876395977236 2.2507568963888787 66.6089325644324 H 0.0 **** 0.06
25325 H 130.47242337004087 3.8842887968587263 66.17447643263495 H 0.0 **** 0.06
25326 C 74.90431962563396 72.2418315160933 145.70440070248182 C 0.0 **** -0.24
25327 H 74.57673547398304 72.17679100545794 144.66744795041322 H 0.0 **** 0.06
25328 H 74.19128422128635 71.7195452895378 146.3431254594393 H 0.0 **** 0.06
25329 H 74.96104411702466 73.28860075476906 146.00275480798504 H 0.0 **** 0.06
25330 H 75.88742174774183 71.78130081203048 145.8047071433292 H 0.0 **** 0.06
25331 C 31.36482757911392 154.70889756477868 34.94735151886516 C 0.0 **** -0.24
25332 H 30.590841105022832 154.37326645544744 34.2581698680288 H 0.0 **** 0.06
25333 H 32.11388362260186 153.92522606173213 35.06285351626087 H 0.0 **** 0.06
25334 H 30.916819029890235 154.92862957642797 35.91667389843519 H 0.0 **** 0.06
25335 H 31.83744057597619 155.60842181829742 34.5530841582422 H 0.0 **** 0.06
25336 C 86.50998903104951 79.11934245815678 103.71343011075521 C 0.0 **** -0.24
25337 H 86.01685822937387 79.40993116919375 104.64081454359223 H 0.0 **** 0.06
25338 H 87.40769975293716 79.72156665273255 103.57596685161712 H 0.0 **** 0.06
25339 H 85.83171128604778 79.27970096639712 102.87571648448136 H 0.0 **** 0.06
25340 H 86.78376369262156 78.06516777396148 103.76263238941141 H 0.0 **** 0.06
25341 C 113.50465978857247 34.22014801218273 133.9480418838854 C 0.0 **** -0.24
25342 H 113.93426723209666 35.06444505995316 134.48644192478525 H 0.0 **** 0.06
25343 H 112.7141738824827 33.77083937406502 134.54848209275923 H 0.0 **** 0.06
25344 H 114.28097962360695 33.479121565450896 133.75595072309667 H 0.0 **** 0.06
25345 H 113.09046405835744 34.56604965252296 133.0006371924761 H 0.0 **** 0.06
25346 C 95.90285184958094 172.99080083692624 9.462733885246728 C 0.0 **** -0.24
25347 H 95.3808614453269 173.31786606549673 8.562872195807515 H 0.0 **** 0.06
25348 H 96.62557280688708 172.21753070228084 9.202060906833758 H 0.0 **** 0.06
25349 H 95.18180501277334 172.58931838292136 10.175083511501683 H 0.0 **** 0.06
25350 H 96.4214950529173 173.8381369993186 9.910640490233128 H 0.0 **** 0.06
25351 C 133.08899287026736 43.0450102458029 32.56487952899698 C 0.0 **** -0.24
25352 H 132.3860385863925 42.68577961655491 33.31680194682082 H 0.0 **** 0.06
25353 H 133.58073214090882 43.94750442700975 32.92795448745608 H 0.0 **** 0.06
25354 H 132.5503117955077 43.26986376239253 31.643331744645366 H 0.0 **** 0.06
25355 H 133.8364645316401 42.27590060229711 32.36965873219788 H 0.0 **** 0.06
25356 C 79.06438360395737 10.701828425547006 146.70408400373233 C 0.0 **** -0.24
25357 H 78.97982345026969 9.661787584259343 147.01766220924733 H 0.0 **** 0.06
25358 H 78.2137458169338 10.960419587527298 146.07164452127782 H 0.0 **** 0.06
25359 H 79.98832262609204 10.838423016275215 146.143355679141 H 0.0 **** 0.06
25360 H 79.07300236862142 11.34673490954043 147.58266013658346 H 0.0 **** 0.06
25361 C 185.45410673507638 192.1595418102485 30.456830371621635 C 0.0 **** -0.24
25362 H 185.8947406581363 191.9322860142392 31.427152078387422 H 0.0 **** 0.06
25363 H 185.97780873129236 193.00441910934242 30.00848198867729 H 0.0 **** 0.06
25364 H 184.40185933715924 192.4124675762652 30.586130985474128 H 0.0 **** 0.06
25365 H 185.54076882502565 191.2901653884187 29.805295264627432 H 0.0 **** 0.06
25366 C 22.961973665347443 57.98183442269443 15.574381935017698 C 0.0 **** -0.24
25367 H 23.269008809756244 58.33780500829761 16.557683028033523 H 0.0 **** 0.06
25368 H 23.73478607030212 58.220196389949635 14.843489846518139 H 0.0 **** 0.06
25369 H 22.027871031673115 58.465703160309914 15.288208898195478 H 0.0 **** 0.06
25370 H 22.816291680442347 56.9015207752353 15.6088767858827 H 0.0 **** 0.06
25371 C 38.22322677155698 171.6185084398996 98.85852584066268 C 0.0 **** -0.24
25372 H 38.306365734205116 172.465580167281 98.17794000926656 H 0.0 **** 0.06
25373 H 38.796177032721786 171.82204009823408 99.76386200539756 H 0.0 **** 0.06
25374 H 38.61451780126805 170.72368354995953 98.37373057991937 H 0.0 **** 0.06
25375 H 37.176491987965264 171.4623145307951 99.11792981412961 H 0.0 **** 0.06
25376 C 180.58478085790154 110.2519450243731 68.50584072874393 C 0.0 **** -0.24
25377 H 180.50602686971965 109.1686268285259 68.60091540326668 H 0.0 **** 0.06
25378 H 181.52409206312262 110.505885057836 68.01535058032744 H 0.0 **** 0.06
25379 H 180.55606783947908 110.70570794143407 69.49603941633582 H 0.0 **** 0.06
25380 H 179.75111745379454 110.6244505285425 67.91004741407323 H 0.0 **** 0.06
25381 C 158.47989027633582 87.89044263945149 189.18010048371124 C 0.0 **** -0.24
25382 H 157.76565956610807 88.19074610892821 188.4136861098901 H 0.0 **** 0.06
25383 H 158.1653807747242 86.94209940061438 189.61793560961272 H 0.0 **** 0.06
25384 H 158.52140294025216 88.653531915814 189.95683603783363 H 0.0 **** 0.06
25385 H 159.46658643646597 87.77413809423834 188.73156662044488 H 0.0 **** 0.06
25386 C 94.96714043630735 46.90776693001612 119.76708561233957 C 0.0 **** -0.24
25387 H 94.42752523545514 45.974682371737956 119.93159500896226 H 0.0 **** 0.06
25388 H 94.33782069382676 47.74811279480434 120.06213678933284 H 0.0 **** 0.06
25389 H 95.22322279056152 46.998113824109424 118.71083991324176 H 0.0 **** 0.06
25390 H 95.87880725743344 46.90938849836222 120.36379797244851 H 0.0 **** 0.06
25391 C 4.593717712066876 71.21176899433175 135.66892057921515 C 0.0 **** -0.24
25392 H 5.026806815953648 72.03094968408385 136.24253150854693 H 0.0 **** 0.06
25393 H 3.6404341720169384 70.9219707486169 136.11190948447123 H 0.0 **** 0.06
25394 H 5.274636546587828 70.36122452044981 135.68080762919928 H 0.0 **** 0.06
25395 H 4.4330881927123755 71.5344148623282 134.63954527629312 H 0.0 **** 0.06
25396 C 184.63067246665088 124.80700402172951 144.1213500830986 C 0.0 **** -0.24
25397 H 184.3749762350513 125.08503030154549 143.09855219388456 H 0.0 **** 0.06
25398 H 184.01789581420314 123.96049017586193 144.43096074472103 H 0.0 **** 0.06
25399 H 184.4448976466935 125.65255959412326 144.78371567309628 H 0.0 **** 0.06
25400 H 185.68442718127415 124.53138175453716 144.16940278299944 H 0.0 **** 0.06
25401 C 137.62061613403176 166.99221081419887 67.06893447191888 C 0.0 **** -0.24
25402 H 137.62086460027703 168.01441197277657 67.44514369007487 H 0.0 **** 0.06
25403 H 136.71705857544265 166.4808230389889 67.40327262244193 H 0.0 **** 0.06
25404 H 138.49736107122618 166.46537950418636 67.44755671154616 H 0.0 **** 0.06
25405 H 137.64925796212745 167.00631112382428 65.97876176110236 H 0.0 **** 0.06
25406 C 105.71469594330696 32.71309370581935 1.3850476254946784 C 0.0 **** -0.24
25407 H 106.57261786545709 33.33888027157252 1.6311996815643397 H 0.0 **** 0.06
25408 H 105.3341982898942 32.99029380792882 0.4023893416843407 H 0.0 **** 0.06
25409 H 104.93451958039901 32.85729428500028 2.132264937649211 H 0.0 **** 0.06
25410 H 106.01988513832364 31.666259384431555 1.3763205267446779 H 0.0 **** 0.06
25411 C 159.40009985636675 99.85753265715553 24.104099135869916 C 0.0 **** -0.24
25412 H 160.15535389982395 100.32641546690883 24.734254598241193 H 0.0 **** 0.06
25413 H 159.76298844219644 99.81156170707004 23.07661518995809 H 0.0 **** 0.06
25414 H 158.4819890912501 100.4452015050945 24.13864852318045 H 0.0 **** 0.06
25415 H 159.20047192606307 98.84901157809693 24.464982199239557 H 0.0 **** 0.06
25416 C 171.6774959846703 65.90621757363398 130.12537859414743 C 0.0 **** -0.24
25417 H 171.9883545364424 66.14298311267505 129.10860197729988 H 0.0 **** 0.06
25418 H 171.83994744030008 64.84525085424399 130.31734172677807 H 0.0 **** 0.06
25419 H 170.61940083173846 66.13999175793946 130.24622550531348 H 0.0 **** 0.06
25420 H 172.26274471113044 66.49642329546046 130.83066280663138 H 0.0 **** 0.06
25421 C 93.23736958167683 80.35786965545597 194.3714531150125 C 0.0 **** -0.24
25422 H 93.59445628906417 79.38844713611721 194.0262695278188 H 0.0 **** 0.06
25423 H 94.08435602185483 80.96699651659642 194.68599262510787 H 0.0 **** 0.06
25424 H 92.55928415619155 80.2164263278303 195.21292303027766 H 0.0 **** 0.06
25425 H 92.7090516752719 80.86035314316237 193.56050043970993 H 0.0 **** 0.06
25426 C 179.03749684469386 191.14221401315757 35.11468070714345 C 0.0 **** -0.24
25427 H 179.26240062057434 190.44282405899355 35.920277801964346 H 0.0 **** 0.06
25428 H 178.00044724095883 191.46680038818621 35.194301474988634 H 0.0 **** 0.06
25429 H 179.19236980575252 190.65057137011138 34.15416336534145 H 0.0 **** 0.06
25430 H 179.69645562246458 192.00726608950572 35.19044297096413 H 0.0 **** 0.06
25431 C 103.10418752667897 34.28933088982507 73.19979347688974 C 0.0 **** -0.24
25432 H 103.14776296291166 33.31541384770378 73.68884407834344 H 0.0 **** 0.06
25433 H 102.23762757280355 34.325885162641725 72.53968794620528 H 0.0 **** 0.06
25434 H 104.01224503836937 34.443160816486056 72.61740393672727 H 0.0 **** 0.06
25435 H 103.0190106107969 35.07078179506277 73.95514972812822 H 0.0 **** 0.06
25436 C 59.3265973807014 36.276080369460345 53.993872916539246 C 0.0 **** -0.24
25437 H 59.59377759673919 35.501547725997824 54.71372542111928 H 0.0 **** 0.06
25438 H 60.07211515450297 36.30626281118934 53.199456183909675 H 0.0 **** 0.06
25439 H 59.290190018025214 37.24180582602648 54.496815759104635 H 0.0 **** 0.06
25440 H 58.34865750900201 36.0517399135703 53.5667140791201 H 0.0 **** 0.06
25441 C 16.57007392923242 87.9590603829364 67.88559597623941 C 0.0 **** -0.24
25442 H 16.38871490715721 88.34036135586251 68.89110340135434 H 0.0 **** 0.06
25443 H 17.018547428323927 88.74250954072158 67.2749065175658 H 0.0 **** 0.06
25444 H 15.624382081315943 87.64740242967889 67.44052636078402 H 0.0 **** 0.06
25445 H 17.246278281848134 87.10588346068323 67.9379361220117 H 0.0 **** 0.06
25446 C 143.8937997585001 198.29968404479166 157.92970813011425 C 0.0 **** -0.24
25447 H 143.18079298949914 199.04231512486987 158.28727225105712 H 0.0 **** 0.06
25448 H 144.90463895409442 198.69826304684022 158.01103195332985 H 0.0 **** 0.06
25449 H 143.6792761578274 198.06356596672504 156.8870372432595 H 0.0 **** 0.06
25450 H 143.80939326857455 197.39551543451108 158.53177567613807 H 0.0 **** 0.06
25451 C 27.885629497562235 67.04750527063345 42.02912686623844 C 0.0 **** -0.24
25452 H 26.83574827233423 67.18987645199996 42.28597614185372 H 0.0 **** 0.06
25453 H 28.49304232200734 67.12215609447486 42.932168747174444 H 0.0 **** 0.06
25454 H 28.19309148490703 67.8151359913557 41.31931571185385 H 0.0 **** 0.06
25455 H 28.018643063619606 66.0631647868953 41.58186312462993 H 0.0 **** 0.06
25456 C 61.615975843257885 191.039593309714 127.78373390644339 C 0.0 **** -0.24
25457 H 62.056370066741835 191.17797273613104 128.77156980485276 H 0.0 **** 0.06
25458 H 61.36181581114329 189.98962112307854 127.64278092896754 H 0.0 **** 0.06
25459 H 62.332475304392275 191.34530079367445 127.02060471528662 H 0.0 **** 0.06
25460 H 60.71432993439382 191.64672944132334 127.69947794214553 H 0.0 **** 0.06
25461 C 118.49820288704115 35.76187706626263 165.5284637041487 C 0.0 **** -0.24
25462 H 119.25630721227202 36.49718656623992 165.26107367507348 H 0.0 **** 0.06
25463 H 117.57625684330031 35.977534786009585 164.98816847987948 H 0.0 **** 0.06
25464 H 118.31074395299129 35.80809440167576 166.60139883553603 H 0.0 **** 0.06
25465 H 118.84954867286785 34.764408292341614 165.2645984653747 H 0.0 **** 0.06
25466 C 136.65802015408764 128.52952439365922 20.74692685063816 C 0.0 **** -0.24
25467 H 137.22648149410009 129.38294703756443 21.115773926910904 H 0.0 **** 0.06
25468 H 135.96740954667462 128.19210819564674 21.520140270374256 H 0.0 **** 0.06
25469 H 137.3426037987423 127.71990224380542 20.492460924776893 H 0.0 **** 0.06
25470 H 136.0962004750229 128.82243781546543 19.86039481949895 H 0.0 **** 0.06
25471 C 36.8582319563658 38.062241755766934 71.6326351952772 C 0.0 **** -0.24
25472 H 36.17163805950416 37.88630988459556 72.46162163172482 H 0.0 **** 0.06
25473 H 36.78003668092022 37.24328258467986 70.91721219528245 H 0.0 **** 0.06
25474 H 37.87887936843347 38.118254342608026 72.01297210279773 H 0.0 **** 0.06
25475 H 36.60188817121902 39.000849084868264 71.14150810014456 H 0.0 **** 0.06
25476 C 15.163760371324443 121.47079232895112 114.43616947777366 C 0.0 **** -0.24
25477 H 15.492940022533787 121.35880987753717 113.40330338688989 H 0.0 **** 0.06
25478 H 14.699595473082283 122.44874079213741 114.56462740057168 H 0.0 **** 0.06
25479 H 16.02137321110412 121.38502768700243 115.10246242945311 H 0.0 **** 0.06
25480 H 14.439731316932765 120.69092351216449 114.6725743077269 H 0.0 **** 0.06
25481 C 159.98722475203564 5.11448390927697 130.47776831594325 C 0.0 **** -0.24
25482 H 160.16184688593927 5.337097230468231 131.5307854663472 H 0.0 **** 0.06
25483 H 160.94381836250636 5.043322467469693 129.95875827143408 H 0.0 **** 0.06
25484 H 159.39117658971725 5.910581290515495 130.03269842352483 H 0.0 **** 0.06
25485 H 159.4543725200383 4.168323074393243 130.39013939242906 H 0.0 **** 0.06
25486 C 26.580095423926082 149.3679261286439 119.82101733352283 C 0.0 **** -0.24
25487 H 27.090554169752863 148.44147876522064 119.55650674796942 H 0.0 **** 0.06
25488 H 27.134056335892552 149.87482777011252 120.61171938633188 H 0.0 **** 0.06
25489 H 25.573605223121433 149.1394227121582 120.17164298609225 H 0.0 **** 0.06
25490 H 26.521450147594294 150.01370351479903 118.94477194258724 H 0.0 **** 0.06
25491 C 158.01840394816682 169.88261716333997 106.67067547141244 C 0.0 **** -0.24
25492 H 158.86788251613325 170.0690907501395 107.32793071264666 H 0.0 **** 0.06
25493 H 157.17838899913616 170.50840750961774 106.97527365209123 H 0.0 **** 0.06
25494 H 157.73218337263825 168.83280421606392 106.73459135738773 H 0.0 **** 0.06
25495 H 158.29539024997467 170.12132764651207 105.6427617474506 H 0.0 **** 0.06
25496 C 30.27766786781646 37.704834536583405 155.2584053538871 C 0.0 **** -0.24
25497 H 30.428887958409817 37.670733178128444 154.17948493799335 H 0.0 **** 0.06
25498 H 29.732357602626806 38.611601495109085 155.5203215271759 H 0.0 **** 0.06
25499 H 31.2454161100395 37.70291291399735 155.76114221839634 H 0.0 **** 0.06
25500 H 29.7040899936828 36.83268893462025 155.57284320502583 H 0.0 **** 0.06
25501 C 176.63189042490797 16.569082865862754 30.906488553495024 C 0.0 **** -0.24
25502 H 177.4515251463402 16.07102792094014 31.4237852416922 H 0.0 **** 0.06
25503 H 177.0301748755765 17.362017842908017 30.272886693845976 H 0.0 **** 0.06
25504 H 175.9465495592451 16.997088709245475 31.63763188017947 H 0.0 **** 0.06
25505 H 176.09844007958537 15.844649989494798 30.28996325090219 H 0.0 **** 0.06
25506 C 106.78703428646054 99.4218302582263 162.4195775637339 C 0.0 **** -0.24
25507 H 107.54847989377328 99.95100214308536 162.99133131836555 H 0.0 **** 0.06
25508 H 106.12279832828898 100.14382814745022 161.94436253149763 H 0.0 **** 0.06
25509 H 106.20973597241817 98.7819261024176 163.087015210966 H 0.0 **** 0.06
25510 H 107.26569615659488 98.81001156862865 161.65478975485738 H 0.0 **** 0.06
25511 C 161.3267460475564 168.8682026157126 83.4420161557365 C 0.0 **** -0.24
25512 H 162.26585735854331 168.68117419843495 83.96286738311551 H 0.0 **** 0.06
25513 H 160.70798015494637 167.97123795921422 83.47557009725745 H 0.0 **** 0.06
25514 H 161.5340172209464 169.12854344827377 82.40426282059894 H 0.0 **** 0.06
25515 H 160.8006638683615 169.69111364028933 83.92505409495368 H 0.0 **** 0.06
25516 C 194.05867584515323 172.43106493340485 44.18066222118779 C 0.0 **** -0.24
25517 H 193.2277933880083 172.02432043252085 43.603437867026685 H 0.0 **** 0.06
25518 H 193.67705860737829 172.89526472694916 45.08954092473937 H 0.0 **** 0.06
25519 H 194.58473003755032 173.17598356958302 43.583805546974986 H 0.0 **** 0.06
25520 H 194.74554117965292 171.6264124353326 44.44395875013731 H 0.0 **** 0.06
25521 C 95.06581481116635 12.264141102116703 69.9202022671463 C 0.0 **** -0.24
25522 H 95.53825415534138 12.88967010360124 69.16234658665115 H 0.0 **** 0.06
25523 H 95.58799833401545 12.387235123753015 70.86915533119634 H 0.0 **** 0.06
25524 H 95.11505930030404 11.219676959182479 69.61140730387842 H 0.0 **** 0.06
25525 H 94.02361034308032 12.560312083492448 70.0375447983456 H 0.0 **** 0.06
25526 C 110.42668828419679 128.10802809519973 47.95479636557059 C 0.0 **** -0.24
25527 H 109.62493287602925 127.61318208566712 47.406625428501854 H 0.0 **** 0.06
25528 H 110.04066067783353 128.4820526790201 48.903470702363194 H 0.0 **** 0.06
25529 H 110.80904064916146 128.9408792100643 47.36483334364718 H 0.0 **** 0.06
25530 H 111.23052195627477 127.39662669005821 48.14402149479696 H 0.0 **** 0.06
25531 C 27.514556279552238 113.41648267990317 180.36330079365172 C 0.0 **** -0.24
25532 H 28.40734312884483 113.05856254984775 180.8762330584725 H 0.0 **** 0.06
25533 H 27.33545927489203 114.45865335879719 180.63219161367394 H 0.0 **** 0.06
25534 H 26.657277184476158 112.81268360924369 180.66165616348832 H 0.0 **** 0.06
25535 H 27.657424968621186 113.3383844543713 179.2857573483272 H 0.0 **** 0.06
25536 C 128.36781340713455 39.25726766293565 113.4299458648099 C 0.0 **** -0.24
25537 H 128.30021480812798 38.38961383754258 112.77283402157963 H 0.0 **** 0.06
25538 H 127.38521289830445 39.71973817570881 113.5225414589321 H 0.0 **** 0.06
25539 H 129.0707616760715 39.975909289999976 113.00958220346914 H 0.0 **** 0.06
25540 H 128.7161875654859 38.94100231009321 114.4126214632403 H 0.0 **** 0.06
25541 C 183.36368787027183 177.0704370265774 195.13879453804046 C 0.0 **** -0.24
25542 H 182.32018353737053 176.85691650565366 194.90960607128355 H 0.0 **** 0.06
25543 H 183.4353863003574 178.03672649587097 195.63903917876513 H 0.0 **** 0.06
25544 H 183.94155385429912 177.0957500553477 194.2150397908896 H 0.0 **** 0.06
25545 H 183.7585727750696 176.29230386655374 195.79254402748472 H 0.0 **** 0.06
25546 C 53.74738713515319 198.34958927850533 185.35167945562006 C 0.0 **** -0.24
25547 H 54.78599984083462 198.08855364192755 185.5530912518952 H 0.0 **** 0.06
25548 H 53.70603846435199 199.07622993356745 184.5403655060258 H 0.0 **** 0.06
25549 H 53.30052543520239 198.77921234483068 186.24775216751115 H 0.0 **** 0.06
25550 H 53.19679053115419 197.452136239507 185.0653995971354 H 0.0 **** 0.06
25551 C 138.20738929745488 183.27013501442772 151.70993917742462 C 0.0 **** -0.24
25552 H 138.8050382589395 182.6402542774398 152.36862396683705 H 0.0 **** 0.06
25553 H 138.65049374800498 183.27807053630224 150.7144462639482 H 0.0 **** 0.06
25554 H 138.182499925337 184.28647566138267 152.10396824551285 H 0.0 **** 0.06
25555 H 137.1923185312901 182.8770965068283 151.65430869919334 H 0.0 **** 0.06
25556 C 105.41724954638408 24.306428308675038 112.1319148018473 C 0.0 **** -0.24
25557 H 105.94636592687505 23.584276960494662 111.51104287977557 H 0.0 **** 0.06
25558 H 105.90926423727791 24.382485432159825 113.10185374424168 H 0.0 **** 0.06
25559 H 104.38717261386364 23.98041397059623 112.27098966000142 H 0.0 **** 0.06
25560 H 105.42607993012132 25.280784144048823 111.64205927119781 H 0.0 **** 0.06
25561 C 156.61471188574654 138.14474970951005 156.21808525705728 C 0.0 **** -0.24
25562 H 156.36547956692448 138.37867666313454 155.18292820609832 H 0.0 **** 0.06
25563 H 156.06797599928174 137.25488032718795 156.5308536157593 H 0.0 **** 0.06
25564 H 156.3403604502449 138.9831088165534 156.85681597993616 H 0.0 **** 0.06
25565 H 157.68619440603047 137.95943015963704 156.29994842026372 H 0.0 **** 0.06
25566 C 157.17296133895076 28.016040880064736 74.16281625364928 C 0.0 **** -0.24
25567 H 156.78073409338987 27.748268628722286 75.1438419864503 H 0.0 **** 0.06
25568 H 156.3617747582485 28.39156470106724 73.53730852305921 H 0.0 **** 0.06
25569 H 157.61561181460016 27.13663187837909 73.69589545793309 H 0.0 **** 0.06
25570 H 157.93320454343794 28.79002090845819 74.27479794595348 H 0.0 **** 0.06
25571 C 181.9841505766479 157.26847511892703 196.12311797836009 C 0.0 **** -0.24
25572 H 182.49102217588228 157.8511090486857 195.35421320066087 H 0.0 **** 0.06
25573 H 181.27899501847415 156.58311197234494 195.65339713821822 H 0.0 **** 0.06
25574 H 181.4478553903626 157.93974096156 196.79313984606995 H 0.0 **** 0.06
25575 H 182.72080804026663 156.69891123504735 196.6909308661709 H 0.0 **** 0.06
25576 C 113.63603126985402 16.994491279053918 112.11349192475987 C 0.0 **** -0.24
25577 H 114.67786508348036 16.737094232791392 111.92058841373495 H 0.0 **** 0.06
25578 H 112.9948527414357 16.16905311698332 111.80319910916907 H 0.0 **** 0.06
25579 H 113.37322483001407 17.89079583094164 111.55204949856514 H 0.0 **** 0.06
25580 H 113.4999247337239 17.180335822576183 113.1793528541777 H 0.0 **** 0.06
25581 C 61.19899997709089 192.69871275562892 172.0724939423061 C 0.0 **** -0.24
25582 H 60.192593853272356 192.61501911859287 172.48305426456608 H 0.0 **** 0.06
25583 H 61.50716434948603 191.7348009172935 171.66837470898759 H 0.0 **** 0.06
25584 H 61.888022684244646 192.9998309626028 172.8617076146986 H 0.0 **** 0.06
25585 H 61.20697715168271 193.4455050720465 171.27892839975166 H 0.0 **** 0.06
25586 C 0.5909374484731984 77.44487048211096 145.2598477047371 C 0.0 **** -0.24
25587 H 1.352189578369746 78.12833648487738 144.88125142846485 H 0.0 **** 0.06
25588 H -0.2247808566171443 77.375464215513 144.54066060460468 H 0.0 **** 0.06
25589 H 0.20837078841151424 77.81956199653335 146.20942851203208 H 0.0 **** 0.06
25590 H 1.0305453527537338 76.45873346751337 145.40878177389564 H 0.0 **** 0.06
25591 C 183.63647698638204 9.566930773691666 158.859748505039 C 0.0 **** -0.24
25592 H 183.113266382126 9.205122069207647 159.74499864599005 H 0.0 **** 0.06
25593 H 183.71267470119497 8.761738704539482 158.12855336202855 H 0.0 **** 0.06
25594 H 184.6361900980837 9.900453150420049 159.140046962476 H 0.0 **** 0.06
25595 H 183.08359829744776 10.400949796144289 158.42755745150885 H 0.0 **** 0.06
25596 C 104.86417879007095 135.31492788417643 120.39752583167513 C 0.0 **** -0.24
25597 H 104.7174153657273 136.19483327095804 121.02381465318115 H 0.0 **** 0.06
25598 H 105.16462902919224 135.62810638141164 119.39715210823158 H 0.0 **** 0.06
25599 H 103.93273432853951 134.75306863238015 120.3384915232889 H 0.0 **** 0.06
25600 H 105.64136444597062 134.68605100585086 120.83104629978538 H 0.0 **** 0.06
25601 C 109.26827516990511 182.026115714809 107.27270667156293 C 0.0 **** -0.24
25602 H 108.90098241951063 181.44720561068198 106.42547187312789 H 0.0 **** 0.06
25603 H 110.33805060478801 181.85362285693867 107.393460260923 H 0.0 **** 0.06
25604 H 108.74521874394233 181.71658354507002 108.17793233915009 H 0.0 **** 0.06
25605 H 109.0888195482865 183.08605259676156 107.09401375715228 H 0.0 **** 0.06
25606 C 146.46570959009276 183.92530782770908 55.64527092737342 C 0.0 **** -0.24
25607 H 147.52745469902376 183.71352577828677 55.51689109613142 H 0.0 **** 0.06
25608 H 146.3175184582117 184.48459105885965 56.56924135237617 H 0.0 **** 0.06
25609 H 145.91164360206247 182.98774754978163 55.69562267052291 H 0.0 **** 0.06
25610 H 146.10820663520673 184.5151192055542 54.801564316219014 H 0.0 **** 0.06
25611 C 7.924125564562573 145.98968793970425 99.76304254611432 C 0.0 **** -0.24
25612 H 7.425388417800882 145.11152937692736 100.17313824093341 H 0.0 **** 0.06
25613 H 7.601920348987193 146.8776815578879 100.30739337752496 H 0.0 **** 0.06
25614 H 7.665291920947354 146.095135912842 98.70945317943551 H 0.0 **** 0.06
25615 H 9.003579865168234 145.8735677120534 99.8626276816496 H 0.0 **** 0.06
25616 C 65.19579790898543 38.38200439331419 84.22316055274294 C 0.0 **** -0.24
25617 H 65.92560319417798 38.36990233819736 85.0322078019108 H 0.0 **** 0.06
25618 H 64.50779560404075 37.54506485919775 84.34164988394161 H 0.0 **** 0.06
25619 H 65.71158848560641 38.29744213374181 83.26697334601457 H 0.0 **** 0.06
25620 H 64.63778117927758 39.31886818544085 84.25225155630321 H 0.0 **** 0.06
25621 C 3.7138584063380335 137.32786967326058 152.1432620149131 C 0.0 **** -0.24
25622 H 3.156466608253936 136.6507152996976 152.791095355847 H 0.0 **** 0.06
25623 H 4.0184401137098575 136.79798995530348 151.23962591914946 H 0.0 **** 0.06
25624 H 4.596754747094764 137.68904006343917 152.66948027393238 H 0.0 **** 0.06
25625 H 3.080774615229558 138.17368307956434 151.87295792225473 H 0.0 **** 0.06
25626 C 95.47806566647074 182.6699021184188 44.48033068601224 C 0.0 **** -0.24
25627 H 95.41226021736401 183.25850275045906 45.39501019622911 H 0.0 **** 0.06
25628 H 96.5268051567046 182.50112239137587 44.2318098398774 H 0.0 **** 0.06
25629 H 94.99330378265347 183.20822245444185 43.66604522711698 H 0.0 **** 0.06
25630 H 94.98109202175328 181.71107066298896 44.62875280246162 H 0.0 **** 0.06
25631 C 120.65775103849202 75.68527598058077 193.9445505663494 C 0.0 **** -0.24
25632 H 121.34688029981456 75.13120371578435 193.3083018423728 H 0.0 **** 0.06
25633 H 120.47340273323255 75.12035322439232 194.8581394547286 H 0.0 **** 0.06
25634 H 119.71682558782729 75.83806965542789 193.4150148328937 H 0.0 **** 0.06
25635 H 121.09389553309387 76.65147732671835 194.19674613540252 H 0.0 **** 0.06
25636 C 175.77727630031654 187.20693537341208 48.73328585330495 C 0.0 **** -0.24
25637 H 175.07386721633074 187.01054483362748 47.924256129476134 H 0.0 **** 0.06
25638 H 175.31455519352463 186.95453191756604 49.68669884215535 H 0.0 **** 0.06
25639 H 176.0496832945358 188.26275713225482 48.72947214678936 H 0.0 **** 0.06
25640 H 176.67245554011606 186.60136747994295 48.59139385458687 H 0.0 **** 0.06
25641 C 178.71136256219296 147.50214470446954 40.83498686862684 C 0.0 **** -0.24
25642 H 177.82769416818314 147.95178948950607 41.288700915623366 H 0.0 **** 0.06
25643 H 178.98175055832837 148.05860427112174 39.93755956504167 H 0.0 **** 0.06
25644 H 178.4950528118253 146.46661770906064 40.56903451668536 H 0.0 **** 0.06
25645 H 179.53839976063898 147.5304345132168 41.54420604105162 H 0.0 **** 0.06
25646 C 17.78206927806235 187.24633796662377 195.8801615263593 C 0.0 **** -0.24
25647 H 17.717523511801033 188.22245231060975 196.3619720031761 H 0.0 **** 0.06
25648 H 18.46784599680035 187.30407989233177 195.03494271292618 H 0.0 **** 0.06
25649 H 16.79436198121391 186.94952343593565 195.52753125181687 H 0.0 **** 0.06
25650 H 18.147597210248108 186.5114054391412 196.59700752266502 H 0.0 **** 0.06
25651 C 73.2652179462119 84.26015000413213 10.536657546155425 C 0.0 **** -0.24
25652 H 73.31851389181855 84.19358371197168 9.450287839465886 H 0.0 **** 0.06
25653 H 72.82311775100727 83.34651215349331 10.934822073713065 H 0.0 **** 0.06
25654 H 72.64839353562623 85.11409600159047 10.818442186981144 H 0.0 **** 0.06
25655 H 74.26815600047655 84.38707218637384 10.943643652952403 H 0.0 **** 0.06
25656 C 147.79482916083433 117.5757856114102 64.47241611389961 C 0.0 **** -0.24
25657 H 147.66642791735197 117.77007708707188 65.53718069934143 H 0.0 **** 0.06
25658 H 146.8215739789849 117.38644808261964 64.01853357981656 H 0.0 **** 0.06
25659 H 148.43422764556797 116.7032173221545 64.3376094129656 H 0.0 **** 0.06
25660 H 148.2548258981847 118.44215949732413 63.99787321972798 H 0.0 **** 0.06
25661 C 177.17668064040262 42.54162974438745 192.53472797072544 C 0.0 **** -0.24
25662 H 176.65192173101025 42.90327332523583 191.6506517963278 H 0.0 **** 0.06
25663 H 176.98454764598492 43.21342527790867 193.37103553724972 H 0.0 **** 0.06
25664 H 178.2478400773164 42.50888410650548 192.33264904570726 H 0.0 **** 0.06
25665 H 176.82310085938053 41.54046836588623 192.7830562506326 H 0.0 **** 0.06
25666 C 92.68113761295967 140.47380004704038 113.04596654073762 C 0.0 **** -0.24
25667 H 92.65006310597238 139.6689004016282 112.31149011353949 H 0.0 **** 0.06
25668 H 91.78496237600109 141.08818099081327 112.94931912723143 H 0.0 **** 0.06
25669 H 93.56395741541189 141.0888023305321 112.87390826401796 H 0.0 **** 0.06
25670 H 92.72334070397602 140.04837708854427 114.04875011309147 H 0.0 **** 0.06
25671 C 11.740161999559731 150.9424594715455 91.5466281144823 C 0.0 **** -0.24
25672 H 11.782491423951491 150.63196446611983 90.50261865336361 H 0.0 **** 0.06
25673 H 11.906505211138331 150.0770419350358 92.1894446848674 H 0.0 **** 0.06
25674 H 10.7608622512627 151.37048674844465 91.75798636421135 H 0.0 **** 0.06
25675 H 12.51176743968852 151.68874438956567 91.73488735273193 H 0.0 **** 0.06
25676 C 196.8827946666454 113.79040019996984 163.6186678858953 C 0.0 **** -0.24
25677 H 196.35311067669272 113.34358675322997 164.46025704046798 H 0.0 **** 0.06
25678 H 196.77594561895654 114.87417968105026 163.65609761283213 H 0.0 **** 0.06
25679 H 196.46286842576018 113.41518477686475 162.68525156556967 H 0.0 **** 0.06
25680 H 197.93841485806752 113.5266590335749 163.67364301932946 H 0.0 **** 0.06
25681 C 102.54525455558851 97.67033759658312 74.26037947577844 C 0.0 **** -0.24
25682 H 101.91047329732694 97.63111799582524 73.37468524100339 H 0.0 **** 0.06
25683 H 102.30952954142933 96.82975637087156 74.91302302525963 H 0.0 **** 0.06
25684 H 102.36955271160747 98.60574592462524 74.79173040140346 H 0.0 **** 0.06
25685 H 103.59150643238618 97.61440232387577 73.9584888410221 H 0.0 **** 0.06
25686 C 152.2884150365996 175.63638604164439 188.312661845454 C 0.0 **** -0.24
25687 H 151.84050248487097 175.25629142280673 189.2304810519585 H 0.0 **** 0.06
25688 H 152.8942990860788 174.85380832020417 187.8531802181497 H 0.0 **** 0.06
25689 H 152.91954228611334 176.49470284136663 188.54422471041036 H 0.0 **** 0.06
25690 H 151.50171425089044 175.93933723860624 187.6222343601372 H 0.0 **** 0.06
25691 C 26.956192121962275 130.7083602689495 161.38754188985115 C 0.0 **** -0.24
25692 H 25.96779079821627 131.1206969234828 161.18940065697942 H 0.0 **** 0.06
25693 H 27.68309581182666 131.1709763951094 160.71838565056956 H 0.0 **** 0.06
25694 H 26.940823675215626 129.63145334535022 161.2195836431067 H 0.0 **** 0.06
25695 H 27.234352983283458 130.91053466740982 162.42227313407676 H 0.0 **** 0.06
25696 C 81.76111167912069 73.63462178822948 94.35774411174049 C 0.0 **** -0.24
25697 H 81.98847706576544 73.04524021796249 93.46931851912416 H 0.0 **** 0.06
25698 H 80.86922676275748 73.23347586198923 94.84122727385844 H 0.0 **** 0.06
25699 H 81.58292972620475 74.67097941785107 94.07023107720778 H 0.0 **** 0.06
25700 H 82.60176549700756 73.58877898720408 95.04930123569488 H 0.0 **** 0.06
25701 C 165.4110500902579 144.7505520734015 96.3487652945123 C 0.0 **** -0.24
25702 H 165.73420418044284 144.77006639809775 97.39029222146814 H 0.0 **** 0.06
25703 H 165.73517310695073 145.66535841419397 95.85168448520989 H 0.0 **** 0.06
25704 H 164.32436103349988 144.68050035947948 96.3071681638545 H 0.0 **** 0.06
25705 H 165.85063144968527 143.8885355442381 95.8478906652033 H 0.0 **** 0.06
25706 C 49.00903347104776 73.68734105960202 137.5728805670288 C 0.0 **** -0.24
25707 H 49.89865908206458 73.92638329486297 138.15559212935545 H 0.0 **** 0.06
25708 H 48.11815283943044 73.89922710205094 138.16468095775429 H 0.0 **** 0.06
25709 H 49.024553118376645 72.63118247135993 137.3049200351161 H 0.0 **** 0.06
25710 H 48.99558077530372 74.29200085304423 136.66645283882923 H 0.0 **** 0.06
25711 C 173.52245262320943 163.57830274083756 76.55470981639473 C 0.0 **** -0.24
25712 H 173.92625164405712 162.75468804494176 75.96469719260892 H 0.0 **** 0.06
25713 H 173.20899667773298 164.3826264081266 75.88845722763048 H 0.0 **** 0.06
25714 H 174.2909208459632 163.94792137316335 77.23436293448943 H 0.0 **** 0.06
25715 H 172.6669252679572 163.22695596017343 77.12984634309599 H 0.0 **** 0.06
25716 C 149.6264283060134 14.537355926951903 172.10803142224887 C 0.0 **** -0.24
25717 H 149.90551837860437 15.223498432687194 171.30841409198558 H 0.0 **** 0.06
25718 H 150.52224263169967 14.057526444926253 172.50348061743176 H 0.0 **** 0.06
25719 H 148.95068625297154 13.778512286458465 171.7146567024426 H 0.0 **** 0.06
25720 H 149.12873031934313 15.090000663037387 172.9046562925892 H 0.0 **** 0.06
25721 C 42.036734019829765 58.22919201552284 134.41348679276757 C 0.0 **** -0.24
25722 H 42.76931503742952 57.52196097812515 134.02422980753354 H 0.0 **** 0.06
25723 H 41.4113576762129 57.73356686445234 135.15647726063497 H 0.0 **** 0.06
25724 H 41.412053247408494 58.59042566836935 133.59627759521717 H 0.0 **** 0.06
25725 H 42.553954812335235 59.070685769406566 134.87452973892323 H 0.0 **** 0.06
25726 C 57.527777021016675 92.73493863292296 35.20527792670879 C 0.0 **** -0.24
25727 H 57.235509276868356 92.09816403796145 34.370259145783905 H 0.0 **** 0.06
25728 H 56.78405829606089 92.65667236476301 35.99921278776765 H 0.0 **** 0.06
25729 H 57.592461688391495 93.76890007464831 34.868163276592924 H 0.0 **** 0.06
25730 H 58.49852531902488 92.41410771622009 35.58326595347506 H 0.0 **** 0.06
25731 C 110.63772153424958 185.61774969657228 139.74270117147591 C 0.0 **** -0.24
25732 H 111.1821768577239 184.79285065028265 140.20284860200366 H 0.0 **** 0.06
25733 H 110.21252422169886 185.28750871925234 138.79467225017424 H 0.0 **** 0.06
25734 H 111.31918540400909 186.44927151769352 139.56611942333052 H 0.0 **** 0.06
25735 H 109.83674344699955 185.93999738515265 140.4074012501227 H 0.0 **** 0.06
25736 C 37.65085511395664 123.46595118151839 193.79124061691846 C 0.0 **** -0.24
25737 H 37.01301271086659 123.30877188838076 194.66098162360038 H 0.0 **** 0.06
25738 H 37.31326464768205 122.82740374430034 192.97335518188459 H 0.0 **** 0.06
25739 H 38.68079301982314 123.21656087529348 194.04572845463412 H 0.0 **** 0.06
25740 H 37.59541319440062 124.5103289453358 193.48364190250223 H 0.0 **** 0.06
25741 C 166.11027359973573 94.20406833213755 23.611811798192605 C 0.0 **** -0.24
25742 H 165.87530663178768 93.89158342641596 24.628790838486566 H 0.0 **** 0.06
25743 H 166.21089271732217 93.32443368567871 22.97522842874764 H 0.0 **** 0.06
25744 H 167.04790806650655 94.76226086004385 23.61060853632847 H 0.0 **** 0.06
25745 H 165.30988674524747 94.83875314655967 23.23248774786009 H 0.0 **** 0.06
25746 C 20.65413960625372 189.20808375256348 178.20592235659197 C 0.0 **** -0.24
25747 H 20.389965834866118 188.2375710910494 178.62768544926774 H 0.0 **** 0.06
25748 H 21.2689766570616 189.06232306729524 177.31720703255502 H 0.0 **** 0.06
25749 H 21.212641654772312 189.78501793100133 178.9434026002787 H 0.0 **** 0.06
25750 H 19.745942230236267 189.74542948066733 177.9356932977228 H 0.0 **** 0.06
25751 C 17.28031360867996 55.77634278804709 18.090387659929547 C 0.0 **** -0.24
25752 H 17.8419018828842 56.708911198877914 18.15148976125886 H 0.0 **** 0.06
25753 H 17.902017323365897 54.95455905186401 18.44634085071931 H 0.0 **** 0.06
25754 H 16.992283375440024 55.59312629139204 17.055623936007635 H 0.0 **** 0.06
25755 H 16.385656589659362 55.850680037924846 18.70951163683594 H 0.0 **** 0.06
25756 C 32.38261914728105 111.23102873951993 116.30076437404384 C 0.0 **** -0.24
25757 H 32.24049096525437 111.55542743051754 117.33147759558312 H 0.0 **** 0.06
25758 H 32.573896550791204 110.15795110369683 116.28083868968938 H 0.0 **** 0.06
25759 H 33.231719841601915 111.76032075631497 115.86745077967262 H 0.0 **** 0.06
25760 H 31.484933473103325 111.4516949003027 115.72350312393405 H 0.0 **** 0.06
25761 C 130.91480002194842 58.11882374741151 170.00442457705563 C 0.0 **** -0.24
25762 H 131.7909379620393 58.46853375186902 170.55003423083323 H 0.0 **** 0.06
25763 H 130.01372508464078 58.515232578714745 170.47370562724026 H 0.0 **** 0.06
25764 H 130.8857812616628 57.029512888117324 170.02377501618716 H 0.0 **** 0.06
25765 H 130.96774609391792 58.46273886916464 168.97139079842162 H 0.0 **** 0.06
25766 C 187.52204074471518 113.81312731218031 53.70630831893618 C 0.0 **** -0.24
25767 H 187.86518319137082 112.88484758866122 54.16356722580525 H 0.0 **** 0.06
25768 H 188.37715285280848 114.4609839888501 53.51239931761948 H 0.0 **** 0.06
25769 H 186.82996888008063 114.31661647132398 54.38051812294857 H 0.0 **** 0.06
25770 H 187.01520664508672 113.5894195805181 52.76670799713105 H 0.0 **** 0.06
25771 C 67.43923987695393 55.30884466855453 33.726389362579766 C 0.0 **** -0.24
25772 H 68.16393186022239 55.54581182475566 34.50546239034446 H 0.0 **** 0.06
25773 H 67.4920277976978 56.061835611078834 32.93975236335103 H 0.0 **** 0.06
25774 H 66.4371188778093 55.298243473052906 34.15373907411299 H 0.0 **** 0.06
25775 H 67.66576487113863 54.32830495845215 33.30762930372322 H 0.0 **** 0.06
25776 C 14.74313524797735 120.90199241748849 125.88951232960605 C 0.0 **** -0.24
25777 H 13.929269468713464 121.61765265965008 126.0052170825146 H 0.0 **** 0.06
25778 H 14.760437642242621 120.23004546095444 126.7481546405831 H 0.0 **** 0.06
25779 H 15.690408318704584 121.4377283112571 125.82848395010276 H 0.0 **** 0.06
25780 H 14.59345953001396 120.32449140320546 124.97822730151296 H 0.0 **** 0.06
25781 C 182.69980471974452 83.85842320205768 130.5294489539062 C 0.0 **** -0.24
25782 H 182.09120116994222 83.65070126596925 131.4099698311325 H 0.0 **** 0.06
25783 H 183.0893834002842 84.87526680828148 130.58965893514784 H 0.0 **** 0.06
25784 H 182.08882797171012 83.75536577657351 129.63310624804421 H 0.0 **** 0.06
25785 H 183.52937506566315 83.15321585186098 130.48731465723924 H 0.0 **** 0.06
25786 C 9.403811797895393 101.16507044341279 11.6492776871577 C 0.0 **** -0.24
25787 H 8.833553239207859 100.28824609841274 11.339986625812188 H 0.0 **** 0.06
25788 H 9.724545180567674 101.04201416409853 12.684452534256437 H 0.0 **** 0.06
25789 H 8.776548681914143 102.05278085053993 11.565953585817546 H 0.0 **** 0.06
25790 H 10.27735594539864 101.27549389005003 11.007369632844068 H 0.0 **** 0.06
25791 C 160.41575014199105 19.952625743338217 6.351839665658758 C 0.0 **** -0.24
25792 H 160.88416027707217 20.773779569595234 5.809077263286099 H 0.0 **** 0.06
25793 H 160.93500391437783 19.800392386910573 7.298316933506442 H 0.0 **** 0.06
25794 H 160.4737277553872 19.04222963156309 5.754465228150593 H 0.0 **** 0.06
25795 H 159.37046687886084 20.19465254751816 6.5442470736366545 H 0.0 **** 0.06
25796 C 69.37732358906908 29.278581838890204 131.14294778405048 C 0.0 **** -0.24
25797 H 70.1633192136519 29.99900801369816 130.91585156427908 H 0.0 **** 0.06
25798 H 68.980064517686 29.476162631730034 132.1384158832459 H 0.0 **** 0.06
25799 H 69.78927047307704 28.269789222061718 131.11019247102 H 0.0 **** 0.06
25800 H 68.57733061963097 29.36880686178074 130.40778835444053 H 0.0 **** 0.06
25801 C 182.22634217028846 76.46362808191294 115.36420343861593 C 0.0 **** -0.24
25802 H 183.15902358804667 76.86623994341018 115.75939041412684 H 0.0 **** 0.06
25803 H 181.4168634141919 76.66773419827419 116.06591103092669 H 0.0 **** 0.06
25804 H 182.32419415452958 75.38718782018837 115.22591020022338 H 0.0 **** 0.06
25805 H 182.00471270440642 76.9343704900217 114.40639518658182 H 0.0 **** 0.06
25806 C 39.07372494590879 28.086109693758928 179.37570836344614 C 0.0 **** -0.24
25807 H 38.758058433896394 27.306031424887436 180.06902088036844 H 0.0 **** 0.06
25808 H 40.06623183926796 27.84975392476919 178.9917035383003 H 0.0 **** 0.06
25809 H 39.102426727766115 29.043194493566546 179.89517784798414 H 0.0 **** 0.06
25810 H 38.36700418745603 28.14211915837282 178.54760728448383 H 0.0 **** 0.06
25811 C 199.0674538718018 144.561932951002 134.2807415006296 C 0.0 **** -0.24
25812 H 199.19520192836114 143.48658199009512 134.40246830375582 H 0.0 **** 0.06
25813 H 199.92984703157015 144.97223186071608 133.75387096750563 H 0.0 **** 0.06
25814 H 198.9830379808194 145.03091413171276 135.26122214730913 H 0.0 **** 0.06
25815 H 198.1631128804247 144.7582312791581 133.70558326160366 H 0.0 **** 0.06
25816 C 21.46284680164443 146.95937674901344 147.24616789930522 C 0.0 **** -0.24
25817 H 21.425830924016495 148.04693134513775 147.18671625127706 H 0.0 **** 0.06
25818 H 21.13703030607887 146.63906505903034 148.23619049100327 H 0.0 **** 0.06
25819 H 22.484406012752984 146.62160825957432 147.072513351078 H 0.0 **** 0.06
25820 H 20.804833588938763 146.53138988516753 146.4897787518227 H 0.0 **** 0.06
25821 C 68.57744112834158 183.64439108982236 15.066837407349794 C 0.0 **** -0.24
25822 H 68.40113521963238 184.34577796568993 14.251817566132843 H 0.0 **** 0.06
25823 H 67.6970513762856 183.60703632046022 15.709741151980722 H 0.0 **** 0.06
25824 H 69.43815055663939 183.97377767925246 15.648708898750442 H 0.0 **** 0.06
25825 H 68.77177068590848 182.653216474986 14.657550735511563 H 0.0 **** 0.06
25826 C 13.109539928447582 150.51571755254304 84.66327329967112 C 0.0 **** -0.24
25827 H 13.698910911054 149.89571178849246 85.33904795661695 H 0.0 **** 0.06
25828 H 12.26607815440807 149.938191704553 84.28365265479604 H 0.0 **** 0.06
25829 H 13.733032658587447 150.8390409971616 83.82981397591408 H 0.0 **** 0.06
25830 H 12.739522652620202 151.38910656383348 85.20155348914142 H 0.0 **** 0.06
25831 C 150.41043030563876 22.9874298963407 162.2322164517136 C 0.0 **** -0.24
25832 H 149.50481821170308 23.540705183600465 162.48094898764222 H 0.0 **** 0.06
25833 H 150.16614607407394 22.187624753127878 161.53259394974023 H 0.0 **** 0.06
25834 H 150.8360241450301 22.560156042038315 163.1393049727852 H 0.0 **** 0.06
25835 H 151.13379721753304 23.663024660019474 161.7750603286177 H 0.0 **** 0.06
25836 C 13.461736334907158 159.03755568629387 35.969985274427245 C 0.0 **** -0.24
25837 H 13.688533464990428 160.09889920970875 35.86010939182245 H 0.0 **** 0.06
25838 H 13.540712159959753 158.7572995968819 37.02103525214807 H 0.0 **** 0.06
25839 H 14.169553290350137 158.45233149544484 35.38277279936108 H 0.0 **** 0.06
25840 H 12.448949946609844 158.84488274640205 35.61644383865183 H 0.0 **** 0.06
25841 C 168.81541498105287 182.73946286185338 143.8844806459272 C 0.0 **** -0.24
25842 H 168.97704870318233 183.19434517923733 144.8617381856591 H 0.0 **** 0.06
25843 H 169.56420945617012 181.9658240571047 143.7151451462441 H 0.0 **** 0.06
25844 H 168.9007735222921 183.50290881254767 143.11102289789756 H 0.0 **** 0.06
25845 H 167.8202325727826 182.29679086679897 143.8492648788033 H 0.0 **** 0.06
25846 C 19.544802973262463 3.2367127814382144 32.26392767977667 C 0.0 **** -0.24
25847 H 19.182139424880518 4.161374413582138 31.815374794523933 H 0.0 **** 0.06
25848 H 19.30254673673622 2.3975721553117992 31.611114821906966 H 0.0 **** 0.06
25849 H 19.069781708244662 3.0920843272810785 33.23338322476691 H 0.0 **** 0.06
25850 H 20.625220050572366 3.295092851548368 32.393547801745925 H 0.0 **** 0.06
25851 C 15.786362268712622 68.99975533512925 175.6761404058149 C 0.0 **** -0.24
25852 H 16.86125419719403 69.14873679879013 175.77601801223508 H 0.0 **** 0.06
25853 H 15.261218754263808 69.87188311090743 176.06474701802514 H 0.0 **** 0.06
25854 H 15.489977471097689 68.11444278859997 176.23966276768397 H 0.0 **** 0.06
25855 H 15.534753060314614 68.8623456632102 174.62469993565423 H 0.0 **** 0.06
25856 C 153.5414096468691 31.08758638762282 90.08777752507021 C 0.0 **** -0.24
25857 H 152.9323632551274 31.82220366528145 89.56078735904606 H 0.0 **** 0.06
25858 H 154.42029307544973 30.847409318141786 89.48939171439056 H 0.0 **** 0.06
25859 H 152.95586412124942 30.18237312025869 90.252859599027 H 0.0 **** 0.06
25860 H 153.85487085378128 31.497770286766155 91.04729506170128 H 0.0 **** 0.06
25861 C 61.91901824570314 36.65948670274918 126.9052680951439 C 0.0 **** -0.24
25862 H 61.68869731598835 36.951594236743176 125.87996366564815 H 0.0 **** 0.06
25863 H 62.58637004533978 35.7975133008116 126.89631714887008 H 0.0 **** 0.06
25864 H 60.995754393798336 36.400146176490864 127.42425562237062 H 0.0 **** 0.06
25865 H 62.403122684118415 37.489972930016165 127.41812107536592 H 0.0 **** 0.06
25866 C 7.293088773511499 123.9589295340115 14.226303813588515 C 0.0 **** -0.24
25867 H 7.095891288744184 123.14110625735486 14.918448953033561 H 0.0 **** 0.06
25868 H 7.668920302767049 123.55472016590437 13.28549343604459 H 0.0 **** 0.06
25869 H 8.037456447723201 124.62771395614595 14.65762716023346 H 0.0 **** 0.06
25870 H 6.370660651771033 124.50980736941003 14.043416836947728 H 0.0 **** 0.06
25871 C 118.08696373880912 192.09976464620334 85.55753653868476 C 0.0 **** -0.24
25872 H 118.59123887746006 192.88171900158568 84.98777018112821 H 0.0 **** 0.06
25873 H 118.11149327129522 191.16761299626083 84.99289303095719 H 0.0 **** 0.06
25874 H 117.05180685602579 192.39083899749158 85.73503477927056 H 0.0 **** 0.06
25875 H 118.59491443558329 191.9612280630415 86.5122194171438 H 0.0 **** 0.06
25876 C 24.268590340288767 91.4347296724776 101.50245844542508 C 0.0 **** -0.24
25877 H 23.188000560099624 91.33707822274576 101.60971802257382 H 0.0 **** 0.06
25878 H 24.52136327290944 91.53041910324313 100.44625909367596 H 0.0 **** 0.06
25879 H 24.755955436923855 90.55167780452734 101.91549275285328 H 0.0 **** 0.06
25880 H 24.606942045134957 92.32146487458826 102.03998474466817 H 0.0 **** 0.06
25881 C 29.91477876279845 169.02919377916749 170.01059423251434 C 0.0 **** -0.24
25882 H 30.55905388130418 169.0523141955823 170.8891235069331 H 0.0 **** 0.06
25883 H 29.50068334234146 168.02748486600024 169.89007889385607 H 0.0 **** 0.06
25884 H 30.496300673487752 169.2903053487089 169.1266752948234 H 0.0 **** 0.06
25885 H 29.103197484578885 169.74577763405932 170.1360656862749 H 0.0 **** 0.06
25886 C 75.26857357583265 6.053810602875757 189.43533863489586 C 0.0 **** -0.24
25887 H 76.2696614433138 5.816540977909568 189.07643353412965 H 0.0 **** 0.06
25888 H 74.79550288308099 6.759030846462281 188.75231652671098 H 0.0 **** 0.06
25889 H 75.334609768978 6.497543186779318 190.42931817312822 H 0.0 **** 0.06
25890 H 74.67525694160202 5.141222143964299 189.48456607092942 H 0.0 **** 0.06
25891 C 172.76766796418934 78.1528594066396 122.73684481997529 C 0.0 **** -0.24
25892 H 172.2431658474649 78.33268460936478 123.67491043245437 H 0.0 **** 0.06
25893 H 173.8074072455811 78.46363515197254 122.83723075944985 H 0.0 **** 0.06
25894 H 172.29232946130352 78.72440508975569 121.94024925000801 H 0.0 **** 0.06
25895 H 172.7276520674167 77.09040943150728 122.49636516703154 H 0.0 **** 0.06
25896 C 24.151199009762408 29.6820297964981 69.26589549729289 C 0.0 **** -0.24
25897 H 23.29763948426428 29.910600930376816 68.62745046253451 H 0.0 **** 0.06
25898 H 23.936405948260642 30.00027267735682 70.28603866957047 H 0.0 **** 0.06
25899 H 25.031469834845993 30.210387305348334 68.89841717032516 H 0.0 **** 0.06
25900 H 24.33918645350454 28.6089818221935 69.25098160417565 H 0.0 **** 0.06
25901 C 126.37390859809801 59.05183416087726 98.74810851533528 C 0.0 **** -0.24
25902 H 126.10976178666982 60.040328808206354 98.37228478359751 H 0.0 **** 0.06
25903 H 125.87352197725318 58.88138653197747 99.70187344419878 H 0.0 **** 0.06
25904 H 127.45286395387512 58.99262222296407 98.88742451027926 H 0.0 **** 0.06
25905 H 126.05728632056037 58.29524995351035 98.0311550144906 H 0.0 **** 0.06
25906 C 85.26650677293455 122.25567611781372 185.1722404770595 C 0.0 **** -0.24
25907 H 85.57412449233573 121.50888269087272 185.90383981204167 H 0.0 **** 0.06
25908 H 85.92205293196659 122.20408090274282 184.30233653303168 H 0.0 **** 0.06
25909 H 85.33191869455672 123.24890512564366 185.61773360336957 H 0.0 **** 0.06
25910 H 84.23924189426299 122.06264709393031 184.865077131331 H 0.0 **** 0.06
25911 C 4.883837198690799 126.9237284019058 75.03342561265707 C 0.0 **** -0.24
25912 H 4.368811706636478 127.17970350591634 74.10784354850826 H 0.0 **** 0.06
25913 H 5.906813077487982 126.61978233002208 74.80740380168524 H 0.0 **** 0.06
25914 H 4.361883090770249 126.1035427743004 75.52600770816402 H 0.0 **** 0.06
25915 H 4.900396630550944 127.79249874108208 75.69140248341616 H 0.0 **** 0.06
25916 C 2.2936433421030245 153.27684228862307 161.51369899793022 C 0.0 **** -0.24
25917 H 3.2460052727042807 153.1846815282221 160.99271550110785 H 0.0 **** 0.06
25918 H 1.4970499590347117 152.86867534801945 160.8899735309043 H 0.0 **** 0.06
25919 H 2.0921348519333947 154.32764649410257 161.71963955516017 H 0.0 **** 0.06
25920 H 2.3382823593487956 152.7244301663339 162.4522637994309 H 0.0 **** 0.06
25921 C 112.23595978377028 139.039919521 58.15751468183906 C 0.0 **** -0.24
25922 H 111.76192507199175 138.99027579028473 57.17665164373706 H 0.0 **** 0.06
25923 H 112.19642318215526 138.05842951261553 58.63020158411999 H 0.0 **** 0.06
25924 H 111.71014118885952 139.76537079083602 58.77825854395911 H 0.0 **** 0.06
25925 H 113.27632385306907 139.3463178877236 58.041858470641685 H 0.0 **** 0.06
25926 C 198.53065107676144 25.365426702312845 163.20068184204965 C 0.0 **** -0.24
25927 H 198.78356612896596 26.232462313216047 163.8094863020042 H 0.0 **** 0.06
25928 H 199.417192639951 25.027603962137846 162.66363105863076 H 0.0 **** 0.06
25929 H 197.7543693457924 25.63742978731682 162.4850767198311 H 0.0 **** 0.06
25930 H 198.16817545036457 24.563719629080992 163.8434063959698 H 0.0 **** 0.06
25931 C 139.67788227234544 10.290934417129506 31.291249628292235 C 0.0 **** -0.24
25932 H 138.9092936823478 10.339931938729706 32.06190031530653 H 0.0 **** 0.06
25933 H 139.35415493354594 9.616045159361647 30.498401724171288 H 0.0 **** 0.06
25934 H 140.60666316178285 9.92295462954337 31.726777594767782 H 0.0 **** 0.06
25935 H 139.84016805078835 11.286375701669954 30.876931302942182 H 0.0 **** 0.06
25936 C 16.21465224110824 191.32615821530973 140.56316064942354 C 0.0 **** -0.24
25937 H 17.180736903464094 191.38518142242327 141.0635458498141 H 0.0 **** 0.06
25938 H 15.711242071438278 192.2906278673123 140.62808497519472 H 0.0 **** 0.06
25939 H 15.60215936782592 190.5631871519514 141.0444706710531 H 0.0 **** 0.06
25940 H 16.363346074491858 191.06418565481715 139.51526408035875 H 0.0 **** 0.06
25941 C 87.62485424338473 38.92134432360797 62.866556257230684 C 0.0 **** -0.24
25942 H 86.56337053434731 39.154778358026874 62.95275707871667 H 0.0 **** 0.06
25943 H 88.17937559924206 39.46973883907606 63.627905190960945 H 0.0 **** 0.06
25944 H 87.98098051696888 39.20917875536536 61.87806595830156 H 0.0 **** 0.06
25945 H 87.77347133928595 37.85088434929466 63.00905919877465 H 0.0 **** 0.06
25946 C 172.4696194650744 17.1489988874755 77.44443994500125 C 0.0 **** -0.24
25947 H 171.56820310752056 16.808293898515046 76.9350595928951 H 0.0 **** 0.06
25948 H 173.21099251303428 16.350914958632472 77.44166583187587 H 0.0 **** 0.06
25949 H 172.2263861053131 17.41617082756261 78.4726171479142 H 0.0 **** 0.06
25950 H 172.87098293488734 18.021254051052864 76.92745154982292 H 0.0 **** 0.06
25951 C 35.19344289573701 106.82553174899829 115.56308407934787 C 0.0 **** -0.24
25952 H 35.75643332297034 107.47022629129702 116.23706284826551 H 0.0 **** 0.06
25953 H 35.1600772631283 107.27658732304624 114.57120994822455 H 0.0 **** 0.06
25954 H 34.178713812337605 106.70184143306955 115.94150352516363 H 0.0 **** 0.06
25955 H 35.67968303603561 105.85133750212336 115.50295256336176 H 0.0 **** 0.06
25956 C 126.38223714842866 26.07981322182917 111.18958407760132 C 0.0 **** -0.24
25957 H 125.62522046874756 26.823175430287336 110.94190276543858 H 0.0 **** 0.06
25958 H 125.9635874612461 25.351658410957043 111.8847176660689 H 0.0 **** 0.06
25959 H 127.23854336690772 26.572443611759923 111.64983795803178 H 0.0 **** 0.06
25960 H 126.70301543259427 25.571145800436454 110.2795755804323 H 0.0 **** 0.06
25961 C 36.3819168426766 191.67884059629387 70.64257876955685 C 0.0 **** -0.24
25962 H 35.545613074950666 190.9808306346707 70.60409781443508 H 0.0 **** 0.06
25963 H 36.9295835123435 191.64273019721514 69.70066585016957 H 0.0 **** 0.06
25964 H 37.04698870435078 191.40377417562914 71.46107590542294 H 0.0 **** 0.06
25965 H 36.004270982674825 192.68851733135585 70.8050170191899 H 0.0 **** 0.06
25966 C 111.24584330080583 180.87571384664827 55.57102177069618 C 0.0 **** -0.24
25967 H 110.3366181105259 180.6213615277184 56.115985200068735 H 0.0 **** 0.06
25968 H 112.05464958641673 180.21647229545397 55.88681705301042 H 0.0 **** 0.06
25969 H 111.51743632621356 181.9099589300236 55.781197905248376 H 0.0 **** 0.06
25970 H 111.07322278245357 180.75566718746865 54.50196909820562 H 0.0 **** 0.06
25971 C 103.23543063526637 76.88038870538156 165.4134392724735 C 0.0 **** -0.24
25972 H 102.602985100355 76.91306661116289 164.52624567263524 H 0.0 **** 0.06
25973 H 103.79496537206703 77.81276811662855 165.49378982104548 H 0.0 **** 0.06
25974 H 103.92973333822712 76.0439945240883 165.33472964087647 H 0.0 **** 0.06
25975 H 102.6118427137051 76.75261538962638 166.29837077846366 H 0.0 **** 0.06
25976 C 63.28660569622913 156.46842773506498 187.58758801702092 C 0.0 **** -0.24
25977 H 63.50060328092299 157.49502736029172 187.8829232504579 H 0.0 **** 0.06
25978 H 63.71026672172191 155.78286073729575 188.32157365179265 H 0.0 **** 0.06
25979 H 63.725845881260696 156.2726135690052 186.6096107441864 H 0.0 **** 0.06
25980 H 62.20730627645504 156.32345417894257 187.5366653169403 H 0.0 **** 0.06
25981 C 147.68431620846994 166.6444680818192 98.60643630791475 C 0.0 **** -0.24
25982 H 148.74316122525963 166.38475480088613 98.59006740157008 H 0.0 **** 0.06
25983 H 147.08590250551254 165.73484079350655 98.57207224922638 H 0.0 **** 0.06
25984 H 147.4504261638343 167.26718553319375 97.74329026456587 H 0.0 **** 0.06
25985 H 147.4599318549769 167.1933100513425 99.52150890323492 H 0.0 **** 0.06
25986 C 192.47743771558032 10.9421863824614 113.03169152231422 C 0.0 **** -0.24
25987 H 192.15273760925186 10.316840194694016 112.20097819290015 H 0.0 **** 0.06
25988 H 191.7501204351039 10.877048211220036 113.84100374700981 H 0.0 **** 0.06
25989 H 192.5571303514298 11.977323792966914 112.69684327583641 H 0.0 **** 0.06
25990 H 193.4489408105902 10.599294957411729 113.38588618942245 H 0.0 **** 0.06
25991 C 45.93221349095876 135.66823180624016 123.9488546886779 C 0.0 **** -0.24
25992 H 45.12434052474782 136.3093089211157 124.30183781641634 H 0.0 **** 0.06
25993 H 45.994162604396905 134.78170989770646 124.58018336725496 H 0.0 **** 0.06
25994 H 46.874526738391694 136.21470641670578 123.9951897710333 H 0.0 **** 0.06
25995 H 45.73499872685994 135.36962215655754 122.92006838393277 H 0.0 **** 0.06
25996 C 143.11429587246187 109.45895563408442 74.89349760155497 C 0.0 **** -0.24
25997 H 143.5556853877407 109.83823891675877 73.97225107976233 H 0.0 **** 0.06
25998 H 142.33155457566022 110.14010755106204 75.22947206709134 H 0.0 **** 0.06
25999 H 143.88476229942677 109.38490089819473 75.66122220844552 H 0.0 **** 0.06
26000 H 142.6852922650778 108.47353280214688 74.71207977555615 H 0.0 **** 0.06
26001 C 76.30019262264534 174.09063526162203 12.985708389997477 C 0.0 **** -0.24
26002 H 75.479476310466 173.4099515394857 12.758763254948931 H 0.0 **** 0.06
26003 H 75.90086824882019 175.01145328290022 13.41253731329224 H 0.0 **** 0.06
26004 H 76.84539868130338 174.32060372428964 12.070497193371331 H 0.0 **** 0.06
26005 H 76.97432840217328 173.6198694235283 13.701304057924617 H 0.0 **** 0.06
26006 C 74.59804285875259 51.66305513125677 1.0226446474758575 C 0.0 **** -0.24
26007 H 74.94023975482541 51.127035270921425 0.13674640253199755 H 0.0 **** 0.06
26008 H 74.012261731803 52.53062549371009 0.7188604809246044 H 0.0 **** 0.06
26009 H 75.45922831839717 51.99127299173709 1.6040458060564333 H 0.0 **** 0.06
26010 H 73.98033396921592 51.00229587107269 1.630844951329891 H 0.0 **** 0.06
26011 C 115.45781655302247 1.385543571367002 77.04232371382172 C 0.0 **** -0.24
26012 H 115.09863247905608 1.6822970964742154 76.05717407151823 H 0.0 **** 0.06
26013 H 115.61207323574524 0.3064876619848391 77.06137395324373 H 0.0 **** 0.06
26014 H 114.72152531330025 1.662257193609527 77.79573756128475 H 0.0 **** 0.06
26015 H 116.40037220845772 1.8907984875231065 77.25167742387822 H 0.0 **** 0.06
26016 C 9.794445903229814 107.92468197138558 6.2495082632686945 C 0.0 **** -0.24
26017 H 10.583151495131858 107.26167251824216 6.60391991398555 H 0.0 **** 0.06
26018 H 10.178483061598229 108.94204454331853 6.180143115638003 H 0.0 **** 0.06
26019 H 8.956792034991707 107.89832034395147 6.947452941495698 H 0.0 **** 0.06
26020 H 9.45842894407619 107.59442768109813 5.26638090724677 H 0.0 **** 0.06
26021 C 16.764429320523888 22.256687054472366 110.02510402440419 C 0.0 **** -0.24
26022 H 16.4579619511359 23.125183723181635 109.44059482151081 H 0.0 **** 0.06
26023 H 16.34268053165897 21.354594134829938 109.58215820357515 H 0.0 **** 0.06
26024 H 16.405033873367273 22.362188922739335 111.04840453567576 H 0.0 **** 0.06
26025 H 17.852696309096146 22.18669484461836 110.02704278883769 H 0.0 **** 0.06
26026 C 103.4649137160792 40.50380392960801 187.5625887325031 C 0.0 **** -0.24
26027 H 103.81238233573467 39.54528141491977 187.17618111761936 H 0.0 **** 0.06
26028 H 103.3246806070506 40.430796842744314 188.64224626057978 H 0.0 **** 0.06
26029 H 102.51743202455108 40.7635573470227 187.0896655835103 H 0.0 **** 0.06
26030 H 104.2035421948382 41.27409438456152 187.3433463014031 H 0.0 **** 0.06
26031 C 66.72660014971802 20.527137671083395 85.7579354993492 C 0.0 **** -0.24
26032 H 66.70029779628197 20.932859698300774 86.76876262746552 H 0.0 **** 0.06
26033 H 67.70351204428695 20.72018906395577 85.31386680210852 H 0.0 **** 0.06
26034 H 65.9528248854754 21.003366265857053 85.1558077323312 H 0.0 **** 0.06
26035 H 66.54976587282778 19.452135656219937 85.7933048354916 H 0.0 **** 0.06
26036 C 30.583869731821608 165.61736960817242 70.50226110053694 C 0.0 **** -0.24
26037 H 31.28564124635193 165.46987282081005 69.68118794430978 H 0.0 **** 0.06
26038 H 30.006016678914193 166.52459060676256 70.32710807782809 H 0.0 **** 0.06
26039 H 31.135129159961764 165.7123994405444 71.43741298209318 H 0.0 **** 0.06
26040 H 29.91067358489721 164.76271651713887 70.56189921074173 H 0.0 **** 0.06
26041 C 146.512899567937 107.54582520400913 8.323508745145162 C 0.0 **** -0.24
26042 H 146.79852687110866 107.10935973513449 7.366627555055359 H 0.0 **** 0.06
26043 H 145.85903020752528 106.85472558299614 8.855861885138381 H 0.0 **** 0.06
26044 H 145.98686551937558 108.48443157936879 8.152465156229255 H 0.0 **** 0.06
26045 H 147.40654867290237 107.73243144980302 8.918810401740146 H 0.0 **** 0.06
26046 C 66.61576948192469 195.46203851991038 128.8114223712959 C 0.0 **** -0.24
26047 H 67.38085665407466 194.7289701086608 128.55385679308964 H 0.0 **** 0.06
26048 H 65.92257437829532 195.02579729654462 129.53180411860075 H 0.0 **** 0.06
26049 H 66.07161749774689 195.7496470696227 127.91157814475503 H 0.0 **** 0.06
26050 H 67.08810194662645 196.3417373060458 129.2474576325027 H 0.0 **** 0.06
26051 C 80.48713244688255 67.93185962661006 160.51613711984467 C 0.0 **** -0.24
26052 H 81.19764741507555 68.68496139619255 160.8543350641791 H 0.0 **** 0.06
26053 H 80.52887749939813 67.85445051685322 159.4293708719133 H 0.0 **** 0.06
26054 H 79.4805037949958 68.21843622723726 160.82105563027625 H 0.0 **** 0.06
26055 H 80.73992690395448 66.96905948227631 160.95929680787972 H 0.0 **** 0.06
26056 C 54.34256863323324 107.23976592742514 71.60738581816463 C 0.0 **** -0.24
26057 H 54.00176624144807 107.38744868350136 70.58292342149548 H 0.0 **** 0.06
26058 H 54.89848994529386 108.11894710710857 71.93538530386468 H 0.0 **** 0.06
26059 H 54.9892128885553 106.36296794045796 71.65289624264756 H 0.0 **** 0.06
26060 H 53.48181822317842 107.09063249908252 72.25866196311142 H 0.0 **** 0.06
26061 C 100.48188125537934 88.79696879094033 195.3917833177353 C 0.0 **** -0.24
26062 H 100.32481024875005 89.51295765632457 196.19906786836765 H 0.0 **** 0.06
26063 H 99.5631542297495 88.23413676224558 195.22256608506038 H 0.0 **** 0.06
26064 H 101.28358435999138 88.11104857861804 195.66495958142391 H 0.0 **** 0.06
26065 H 100.75437748631634 89.33093710913846 194.48153592398666 H 0.0 **** 0.06
26066 C 2.000085761999486 47.829803610509146 130.78579974852695 C 0.0 **** -0.24
26067 H 1.268163392974401 48.62007195145742 130.95262083987183 H 0.0 **** 0.06
26068 H 2.7668191301935394 48.18390542310988 130.095684858427 H 0.0 **** 0.06
26069 H 1.5034596626691723 46.957434127908016 130.36038383750446 H 0.0 **** 0.06
26070 H 2.4636146592779937 47.55780824038021 131.73425858743641 H 0.0 **** 0.06
26071 C 59.35585127891005 74.70125143507613 148.64636714890688 C 0.0 **** -0.24
26072 H 59.39338907801806 74.37312050873437 147.60818813493657 H 0.0 **** 0.06
26073 H 60.246988482453446 74.35381748077354 149.16946066060976 H 0.0 **** 0.06
26074 H 58.46904260179042 74.28754723697106 149.12597311028821 H 0.0 **** 0.06
26075 H 59.31375151969951 75.78974424314121 148.6824322955982 H 0.0 **** 0.06
26076 C 93.59556102635577 64.86478891382833 176.81966820877813 C 0.0 **** -0.24
26077 H 92.65852717482011 64.55810499071761 177.28462650628734 H 0.0 **** 0.06
26078 H 94.04253708641167 65.67094017167172 177.40136936253646 H 0.0 **** 0.06
26079 H 93.40120187617723 65.21159944961809 175.80553329605831 H 0.0 **** 0.06
26080 H 94.2799375637079 64.01674194790678 176.78851070243354 H 0.0 **** 0.06
26081 C 54.03548456413631 100.68680182278646 65.9376621593558 C 0.0 **** -0.24
26082 H 54.47182935347428 101.68230795847217 65.85727287889114 H 0.0 **** 0.06
26083 H 52.96809663336592 100.73978439884371 65.71668569935193 H 0.0 **** 0.06
26084 H 54.1785879303049 100.3084119123038 66.94907164726976 H 0.0 **** 0.06
26085 H 54.52107957019541 100.01883076125242 65.22621305059187 H 0.0 **** 0.06
26086 C 85.38787470573254 83.02776014590484 50.955394390451374 C 0.0 **** -0.24
26087 H 86.2162929725742 83.69239227896219 50.70935578609169 H 0.0 **** 0.06
26088 H 84.44636311273317 83.50319112430412 50.682213194464225 H 0.0 **** 0.06
26089 H 85.39438398808312 82.8209985139323 52.025395292466385 H 0.0 **** 0.06
26090 H 85.49633101240858 82.09342064886931 50.40342279266224 H 0.0 **** 0.06
26091 C 73.6398198770479 6.99791069799187 174.11164797493535 C 0.0 **** -0.24
26092 H 73.33809846313272 6.167360963088981 173.4730690682858 H 0.0 **** 0.06
26093 H 74.49288706902524 6.696441860392611 174.7195662176002 H 0.0 **** 0.06
26094 H 72.81030218079519 7.276582803638263 174.76101606553271 H 0.0 **** 0.06
26095 H 73.91802318516176 7.849693650830375 173.49105519204568 H 0.0 **** 0.06
26096 C 112.73984198293516 82.62707948686133 121.72269319958855 C 0.0 **** -0.24
26097 H 112.43072562346754 82.82476749871932 120.69637882015957 H 0.0 **** 0.06
26098 H 113.53484450498172 81.8816310489554 121.72619901661906 H 0.0 **** 0.06
26099 H 111.88838723387732 82.25415835594731 122.29249433690336 H 0.0 **** 0.06
26100 H 113.10414581645182 83.54959258700558 122.17591500190815 H 0.0 **** 0.06
26101 C 166.2659004706572 39.89385814796279 180.63292935416223 C 0.0 **** -0.24
26102 H 165.54776930802007 40.67305528911642 180.8904136325944 H 0.0 **** 0.06
26103 H 167.27809889808412 40.284756326736854 180.73515280096257 H 0.0 **** 0.06
26104 H 166.10088941088594 39.57433362504962 179.60351683652436 H 0.0 **** 0.06
26105 H 166.13410525494737 39.04395523852868 181.30286200518208 H 0.0 **** 0.06
26106 C 175.5221293425452 27.75073174305723 182.19711955020793 C 0.0 **** -0.24
26107 H 175.48321569879386 28.438952013848336 183.04126009632105 H 0.0 **** 0.06
26108 H 174.55595738250005 27.25815947432875 182.0848342017827 H 0.0 **** 0.06
26109 H 176.29379533568843 27.001205520936992 182.37496424839355 H 0.0 **** 0.06
26110 H 175.7569552731302 28.304345441738405 181.28839554241262 H 0.0 **** 0.06
26111 C 12.817742671057914 128.61625547396875 4.62249705258062 C 0.0 **** -0.24
26112 H 12.708544242395334 127.5671274425832 4.899487640051952 H 0.0 **** 0.06
26113 H 13.85596871853997 128.81466222075028 4.354741308868299 H 0.0 **** 0.06
26114 H 12.533569683890448 129.24541654810358 5.465734106228744 H 0.0 **** 0.06
26115 H 12.173699731943458 128.836510221366 3.770823269352661 H 0.0 **** 0.06
26116 C 194.92491077757236 11.18374828802694 198.65812557146225 C 0.0 **** -0.24
26117 H 195.37657393118937 12.099395768046179 199.03963018108868 H 0.0 **** 0.06
26118 H 194.33331188494597 11.413052592385156 197.77116108855034 H 0.0 **** 0.06
26119 H 194.2808088945312 10.75124048117926 199.4230238782848 H 0.0 **** 0.06
26120 H 195.70925545854487 10.47225535275797 198.39872256466242 H 0.0 **** 0.06
26121 C 32.330816584085056 40.76265598805442 159.02187587786437 C 0.0 **** -0.24
26122 H 32.45737048797872 39.68034246290067 159.05209557298764 H 0.0 **** 0.06
26123 H 32.992566485596626 41.18458397793955 158.26580543787986 H 0.0 **** 0.06
26124 H 32.57683667157852 41.184415070162785 159.99637937950527 H 0.0 **** 0.06
26125 H 31.296586775320975 41.00066099118425 158.77400091903527 H 0.0 **** 0.06
26126 C 28.281949576194194 7.830900261306823 70.63385682589865 C 0.0 **** -0.24
26127 H 28.983820388991887 7.048191589023332 70.92086583027793 H 0.0 **** 0.06
26128 H 27.9765725639233 8.387789828579741 71.52011107173098 H 0.0 **** 0.06
26129 H 27.406078946195464 7.380038519494008 70.16771843105647 H 0.0 **** 0.06
26130 H 28.762482170228708 8.50838748627993 69.92685031658579 H 0.0 **** 0.06
26131 C 99.27298420181748 143.15461124041252 33.21499971328629 C 0.0 **** -0.24
26132 H 98.4470384405063 143.19446002929382 33.9246174548029 H 0.0 **** 0.06
26133 H 99.21847997565072 144.0134513945421 32.54520975743716 H 0.0 **** 0.06
26134 H 99.20616936527466 142.23527527139512 32.63236272700772 H 0.0 **** 0.06
26135 H 100.21843829788628 143.17459719435553 33.756675619542534 H 0.0 **** 0.06
26136 C 65.79537720870837 69.50095386797676 95.32752828332036 C 0.0 **** -0.24
26137 H 66.01607122033755 68.97005741825416 94.40180652026098 H 0.0 **** 0.06
26138 H 66.53126751811953 69.2295706230388 96.08549418206638 H 0.0 **** 0.06
26139 H 64.79908846701471 69.22743129271583 95.67434497462992 H 0.0 **** 0.06
26140 H 65.8358575619402 70.57522808870317 95.14871857211614 H 0.0 **** 0.06
26141 C 11.999865592388062 146.32858911008765 19.46287274284299 C 0.0 **** -0.24
26142 H 11.026670785289326 146.81484377328837 19.39030575480814 H 0.0 **** 0.06
26143 H 11.8720993026663 145.32026727605898 19.856423924547272 H 0.0 **** 0.06
26144 H 12.642021847085175 146.9016057573737 20.132370290952338 H 0.0 **** 0.06
26145 H 12.455843657212085 146.27942960205775 18.47499978089911 H 0.0 **** 0.06
26146 C 29.34024569944758 57.17755397312419 47.84293603784262 C 0.0 **** -0.24
26147 H 29.481895699754048 58.23219199664658 48.07607241063087 H 0.0 **** 0.06
26148 H 30.308636550588318 56.714395647462766 47.64987843293923 H 0.0 **** 0.06
26149 H 28.709580402610968 57.08342277748551 46.9580742883887 H 0.0 **** 0.06
26150 H 28.860136318731477 56.680485229876126 48.68562537611663 H 0.0 **** 0.06
26151 C 178.94008921101346 181.26236752562164 182.95192505020754 C 0.0 **** -0.24
26152 H 178.0600594231449 181.87999280711148 183.1284476953001 H 0.0 **** 0.06
26153 H 178.89729581248594 180.8501949263023 181.9428545890951 H 0.0 **** 0.06
26154 H 178.96344200720654 180.44743960044917 183.67651585902792 H 0.0 **** 0.06
26155 H 179.83810318500983 181.8694823524981 183.0587386055725 H 0.0 **** 0.06
26156 C 174.31756241879663 5.559837371546543 171.93760745169084 C 0.0 **** -0.24
26157 H 173.88703768051627 5.472593560358227 170.9395630287899 H 0.0 **** 0.06
26158 H 174.20393344726367 6.584085937078214 172.293109942745 H 0.0 **** 0.06
26159 H 175.37662778803232 5.303690883924048 171.8993816012566 H 0.0 **** 0.06
26160 H 173.8034259218447 4.879202956726907 172.61606241249763 H 0.0 **** 0.06
26161 C 196.49349001970103 1.584496018108041 9.121463480443992 C 0.0 **** -0.24
26162 H 196.30302779294755 2.648677111390981 8.984429138151427 H 0.0 **** 0.06
26163 H 197.0307881439407 1.198116328580511 8.255122812648409 H 0.0 **** 0.06
26164 H 195.54530363281572 1.0568242227854228 9.226304993178047 H 0.0 **** 0.06
26165 H 197.09303216114083 1.4358338863170559 10.018391810237318 H 0.0 **** 0.06
26166 C 81.96684390597869 102.76538679552698 44.02521388893993 C 0.0 **** -0.24
26167 H 81.31026850506811 102.65886408667171 43.16069704407755 H 0.0 **** 0.06
26168 H 81.36614426003183 102.95130479809575 44.91594456049171 H 0.0 **** 0.06
26169 H 82.64655396572383 103.60186786610132 43.86383753396649 H 0.0 **** 0.06
26170 H 82.54245012378516 101.84959270660966 44.15930098165936 H 0.0 **** 0.06
26171 C 88.21479322311984 67.5910266140391 141.60392495111773 C 0.0 **** -0.24
26172 H 88.25003141953766 68.43174013421526 140.90998708573136 H 0.0 **** 0.06
26173 H 88.55082097880518 67.91899061161257 142.5882397752607 H 0.0 **** 0.06
26174 H 88.86825111180099 66.79619511853934 141.24374808867935 H 0.0 **** 0.06
26175 H 87.19285225907902 67.21985236918368 141.67226966750238 H 0.0 **** 0.06
26176 C 144.13988825074216 13.594134074812587 48.58610810231954 C 0.0 **** -0.24
26177 H 143.91185614770427 14.53043363735182 49.09361783706012 H 0.0 **** 0.06
26178 H 143.43580047034186 12.825950221959516 48.906639939293655 H 0.0 **** 0.06
26179 H 145.15517451804868 13.284179163533793 48.834962368820925 H 0.0 **** 0.06
26180 H 144.0576746953954 13.736373922976412 47.508247047357315 H 0.0 **** 0.06
26181 C 122.61331647412388 117.79760777428004 165.7281344874043 C 0.0 **** -0.24
26182 H 123.70104638745639 117.82317158708804 165.66112841514388 H 0.0 **** 0.06
26183 H 122.19752010500014 117.46766452419445 164.775486840535 H 0.0 **** 0.06
26184 H 122.2402479122843 118.79539750119514 165.9611735663617 H 0.0 **** 0.06
26185 H 122.31340354882369 117.1051025015575 166.51503688308185 H 0.0 **** 0.06
26186 C 102.3621184469259 158.7493137465226 196.78664042436986 C 0.0 **** -0.24
26187 H 102.86432796659028 157.7815298288566 196.77766341701923 H 0.0 **** 0.06
26188 H 103.0575872521359 159.52200870305512 196.45611301534942 H 0.0 **** 0.06
26189 H 102.02317805429351 158.97322324079684 197.7979418746139 H 0.0 **** 0.06
26190 H 101.50487751735685 158.7199485520548 196.11416339646246 H 0.0 **** 0.06
26191 C 34.53606163925886 119.38478529192588 123.72337210773605 C 0.0 **** -0.24
26192 H 33.9360931710072 120.18030854297243 124.16672783870615 H 0.0 **** 0.06
26193 H 34.08417052756653 118.41927842825996 123.95269855872345 H 0.0 **** 0.06
26194 H 35.545271951392465 119.41994438388386 124.13266179519223 H 0.0 **** 0.06
26195 H 34.57684190721153 119.52051635680763 122.6426983703683 H 0.0 **** 0.06
26196 C 177.40488698052053 20.736197507841837 193.54889924032108 C 0.0 **** -0.24
26197 H 177.5096783903981 21.313889818244377 194.46706917532518 H 0.0 **** 0.06
26198 H 176.88894010842228 21.336282762641417 192.79890910084026 H 0.0 **** 0.06
26199 H 176.8297485309019 19.83326351580041 193.75225271955952 H 0.0 **** 0.06
26200 H 178.39301170911585 20.46189927118391 193.17852821604325 H 0.0 **** 0.06
26201 C 110.46765913318313 153.71570496991816 72.78088769642736 C 0.0 **** -0.24
26202 H 110.94644528275882 152.84208213190135 72.33729479011137 H 0.0 **** 0.06
26203 H 109.40608923339894 153.71236314775564 72.53413912707833 H 0.0 **** 0.06
26204 H 110.929775134849 154.62089781346415 72.38759723311286 H 0.0 **** 0.06
26205 H 110.5903935942851 153.68545511893913 73.86323831755833 H 0.0 **** 0.06
26206 C 114.13835606005549 11.363605074633938 73.23598248792223 C 0.0 **** -0.24
26207 H 114.99550626588902 10.747390444373337 73.50681957817251 H 0.0 **** 0.06
26208 H 114.15516102403015 12.284728623989565 73.81881581724365 H 0.0 **** 0.06
26209 H 113.21895376402821 10.817265912254214 73.44408966772882 H 0.0 **** 0.06
26210 H 114.18578902068745 11.60463964619072 72.17325619805081 H 0.0 **** 0.06
26211 C 51.07890864305176 13.319442603039427 51.49650482311773 C 0.0 **** -0.24
26212 H 51.392807816770016 14.025190185044195 50.727751071519066 H 0.0 **** 0.06
26213 H 50.090966274429434 12.929649729513272 51.25107239534853 H 0.0 **** 0.06
26214 H 51.04038395518063 13.827415373665318 52.460919271256216 H 0.0 **** 0.06
26215 H 51.79286928027301 12.497288424076409 51.547233513782714 H 0.0 **** 0.06
26216 C 142.9722980878475 131.71127172931335 181.91862827181185 C 0.0 **** -0.24
26217 H 142.9950549564868 132.80089335269832 181.95585122690488 H 0.0 **** 0.06
26218 H 142.75417685104298 131.38741065837877 180.90165443498867 H 0.0 **** 0.06
26219 H 142.19902008354973 131.34149769546818 182.5924227412301 H 0.0 **** 0.06
26220 H 143.94106674416724 131.31825646459674 182.22605299625008 H 0.0 **** 0.06
26221 C 176.80228184376844 21.2457679614011 76.58828659961799 C 0.0 **** -0.24
26222 H 176.58484137269465 20.913023910117374 77.60311452359859 H 0.0 **** 0.06
26223 H 175.91602625614695 21.716103688185967 76.16254252629075 H 0.0 **** 0.06
26224 H 177.08784706539987 20.388648885059865 75.97818080339893 H 0.0 **** 0.06
26225 H 177.62104585348388 21.965502888644778 76.61005423064148 H 0.0 **** 0.06
26226 C 104.36497666403542 195.09116331861995 99.35974587891255 C 0.0 **** -0.24
26227 H 104.62418023747082 195.323875816964 100.39261231950488 H 0.0 **** 0.06
26228 H 104.43696600937727 194.01579029402274 99.20056972026455 H 0.0 **** 0.06
26229 H 105.05348806605667 195.6048877939184 98.68881376961676 H 0.0 **** 0.06
26230 H 103.34631230376363 195.42228285917577 99.1573762741036 H 0.0 **** 0.06
26231 C 188.29178528285337 139.54422377799668 59.18516785999546 C 0.0 **** -0.24
26232 H 188.6537918094896 138.5237296786619 59.065210688096386 H 0.0 **** 0.06
26233 H 189.1379731686197 140.2152462763109 59.332200329926195 H 0.0 **** 0.06
26234 H 187.63216636396882 139.59560775650456 60.051936728206215 H 0.0 **** 0.06
26235 H 187.7417222263002 139.8415502461143 58.29280959694199 H 0.0 **** 0.06
26236 C 183.39091502769344 9.913740442653257 109.18551028190782 C 0.0 **** -0.24
26237 H 182.74896990186565 10.780317468890331 109.3462971365957 H 0.0 **** 0.06
26238 H 183.49477273092066 9.7322779054887 108.1159306452912 H 0.0 **** 0.06
26239 H 182.94696769807445 9.04017436181502 109.66109593794312 H 0.0 **** 0.06
26240 H 184.37298260298556 10.104635143489723 109.61889139175184 H 0.0 **** 0.06
26241 C 113.6454928076333 146.69750017563504 170.91298785488115 C 0.0 **** -0.24
26242 H 112.60301709745173 146.77548450537674 170.6014279740596 H 0.0 **** 0.06
26243 H 114.12742600824737 145.88639395007996 170.36657063626342 H 0.0 **** 0.06
26244 H 113.69057950811523 146.49286036374792 171.98197681072813 H 0.0 **** 0.06
26245 H 114.15866637236601 147.63532165226735 170.70030627953815 H 0.0 **** 0.06
26246 C 89.76267418804491 23.668027722898643 174.47442043806785 C 0.0 **** -0.24
26247 H 89.3178677246093 24.033048353792395 175.40008281065076 H 0.0 **** 0.06
26248 H 89.90857863282645 24.50336663633766 173.78793553407434 H 0.0 **** 0.06
26249 H 89.09961729850988 22.93350999603601 174.017931730207 H 0.0 **** 0.06
26250 H 90.72484388886267 23.20462249773871 174.69159487791774 H 0.0 **** 0.06
26251 C 87.2686598714738 104.38187931394924 87.374261145308 C 0.0 **** -0.24
26252 H 87.16847528914957 104.36256771841678 86.28938106974638 H 0.0 **** 0.06
26253 H 88.21984161247417 104.84156894430603 87.64361302051555 H 0.0 **** 0.06
26254 H 87.23468642948285 103.36297459016083 87.76017001348637 H 0.0 **** 0.06
26255 H 86.450234578947 104.96030570512997 87.80286776312872 H 0.0 **** 0.06
26256 C 170.67627648763937 25.974701806425117 9.821705482744392 C 0.0 **** -0.24
26257 H 171.45708103150483 25.265469236885338 10.095422668531228 H 0.0 **** 0.06
26258 H 171.0460445738566 26.99154686006537 9.953069018530755 H 0.0 **** 0.06
26259 H 169.8049040585112 25.818608063212565 10.458794602451917 H 0.0 **** 0.06
26260 H 170.39583707427673 25.820682733670452 8.779997015604636 H 0.0 **** 0.06
26261 C 117.51314459568934 172.08617194391005 193.66538975448935 C 0.0 **** -0.24
26262 H 116.48637768741557 172.37111618684676 193.4362016789218 H 0.0 **** 0.06
26263 H 117.83153889603022 172.58180165767268 194.58280947916745 H 0.0 **** 0.06
26264 H 118.16501410204754 172.38616296405218 192.8450732232973 H 0.0 **** 0.06
26265 H 117.56868717727642 171.0058716928831 193.79756032911968 H 0.0 **** 0.06
26266 C 137.24472643277684 31.68389610473983 13.137988225809096 C 0.0 **** -0.24
26267 H 137.63158080977706 31.454611716900857 14.130650823125855 H 0.0 **** 0.06
26268 H 136.15948040168814 31.780407159517935 13.18401402506187 H 0.0 **** 0.06
26269 H 137.5096425757499 30.880771666963597 12.450699898294907 H 0.0 **** 0.06
26270 H 137.6779949620561 32.62139594022638 12.787213146536907 H 0.0 **** 0.06
26271 C 19.37306043466741 155.49579999543153 81.67926567043406 C 0.0 **** -0.24
26272 H 20.14335718430364 156.02976147613043 81.12268077992178 H 0.0 **** 0.06
26273 H 19.291999231881107 154.47658410703434 81.3010293107815 H 0.0 **** 0.06
26274 H 18.41782172443591 156.00573630614673 81.55801127371026 H 0.0 **** 0.06
26275 H 19.639764896071497 155.47093247592687 82.73602961175084 H 0.0 **** 0.06
26276 C 7.405737273384375 156.5052636483621 182.93086193576184 C 0.0 **** -0.24
26277 H 8.32481580454953 155.93134942977548 182.81349158036377 H 0.0 **** 0.06
26278 H 7.6494954763549 157.56167602503555 183.04270784587624 H 0.0 **** 0.06
26279 H 6.872161058315385 156.15922730601068 183.81587489949015 H 0.0 **** 0.06
26280 H 6.777368597606028 156.3691254897067 182.0503246538182 H 0.0 **** 0.06
26281 C 91.75352099377162 88.90822610269547 1.398355271597552 C 0.0 **** -0.24
26282 H 91.97590531878984 88.29916812280047 2.274068268912629 H 0.0 **** 0.06
26283 H 91.63552554654842 89.94916521074373 1.70024190783667 H 0.0 **** 0.06
26284 H 90.83187912135793 88.55721381236842 0.935924435442189 H 0.0 **** 0.06
26285 H 92.57300296544744 88.82936483813228 0.6831476743944904 H 0.0 **** 0.06
26286 C 27.151535320912046 37.95096198705886 158.21738330132555 C 0.0 **** -0.24
26287 H 27.146026446686733 38.60636574404316 159.0889051153319 H 0.0 **** 0.06
26288 H 26.72732730797665 36.98411138902958 158.48857911518553 H 0.0 **** 0.06
26289 H 28.17667418345809 37.81443333505774 157.8728895790543 H 0.0 **** 0.06
26290 H 26.557298293861095 38.3996306008645 157.42217862060474 H 0.0 **** 0.06
26291 C 81.4991518176038 181.41515823387567 28.185413403743482 C 0.0 **** -0.24
26292 H 82.4672056037083 180.9142802789456 28.217721983280242 H 0.0 **** 0.06
26293 H 81.5716291265905 182.3770467780381 28.692501305607607 H 0.0 **** 0.06
26294 H 80.75297595704171 180.7968313731185 28.68415096516256 H 0.0 **** 0.06
26295 H 81.20670977217893 181.57199772206016 27.146943993117688 H 0.0 **** 0.06
26296 C 167.9844673657954 47.53956215824496 144.27592122850038 C 0.0 **** -0.24
26297 H 167.0003196823353 47.74757338560141 144.69721373344032 H 0.0 **** 0.06
26298 H 168.05275822307203 46.482828828499464 144.01767578400964 H 0.0 **** 0.06
26299 H 168.75129685267774 47.78551086231903 145.00911452624936 H 0.0 **** 0.06
26300 H 168.13023259454758 48.14396451391133 143.38052077228988 H 0.0 **** 0.06
26301 C 93.43180766703472 29.865234013725114 44.96291959087233 C 0.0 **** -0.24
26302 H 93.15901964608247 29.792807731454104 43.91008161087484 H 0.0 **** 0.06
26303 H 94.45732118864595 30.22478772410645 45.04808901627433 H 0.0 **** 0.06
26304 H 93.35131136579616 28.88226104467168 45.427112623827895 H 0.0 **** 0.06
26305 H 92.75945826479085 30.560021300815464 45.46546468610603 H 0.0 **** 0.06
26306 C 132.66501025749275 131.74265967829766 21.79256815819315 C 0.0 **** -0.24
26307 H 133.64602869606895 131.2757007467873 21.7029586168058 H 0.0 **** 0.06
26308 H 131.95067273157554 131.01534037451975 22.178827423005856 H 0.0 **** 0.06
26309 H 132.33747269872683 132.0883158595362 20.811544377994778 H 0.0 **** 0.06
26310 H 132.72715839474589 132.59014492942205 22.474484589226023 H 0.0 **** 0.06
26311 C 72.1179128482147 177.3738850036636 92.15559724936213 C 0.0 **** -0.24
26312 H 71.02991274506542 177.34052956615287 92.20201760154828 H 0.0 **** 0.06
26313 H 72.47170564664509 178.3075981059074 92.59332455198091 H 0.0 **** 0.06
26314 H 72.43866105284474 177.3148708642174 91.11476266239936 H 0.0 **** 0.06
26315 H 72.53170096148921 176.5317999797875 92.71112574576432 H 0.0 **** 0.06
26316 C 133.13882178580437 121.38246677783238 190.5999304590673 C 0.0 **** -0.24
26317 H 132.38554091263197 121.3446845569826 191.3859763117519 H 0.0 **** 0.06
26318 H 134.05096507185752 121.83284569886078 190.9923895679545 H 0.0 **** 0.06
26319 H 132.76634737247127 121.9794056189483 189.76785083596835 H 0.0 **** 0.06
26320 H 133.35305619229663 120.37078622342557 190.25361299808793 H 0.0 **** 0.06
26321 C 178.80470402579326 10.700959802698925 99.14014024985966 C 0.0 **** -0.24
26322 H 177.86572245774929 10.469605545546429 99.642838470361 H 0.0 **** 0.06
26323 H 179.34275719395882 9.776206104266883 98.93063827437899 H 0.0 **** 0.06
26324 H 179.41243939741506 11.337808136526796 99.78265763672923 H 0.0 **** 0.06
26325 H 178.59707389451253 11.22087877166775 98.20536880312284 H 0.0 **** 0.06
26326 C 111.3348382195382 58.104970142027696 81.63784441736985 C 0.0 **** -0.24
26327 H 111.28247304863083 57.386555949729086 82.45593647834946 H 0.0 **** 0.06
26328 H 111.30928692283658 57.57464805275555 80.68577493453768 H 0.0 **** 0.06
26329 H 112.26266899653552 58.672814078172564 81.71190527676981 H 0.0 **** 0.06
26330 H 110.48629187473063 58.786220002595655 81.6977309954467 H 0.0 **** 0.06
26331 C 131.45401424902175 17.306433784249663 41.571349740258555 C 0.0 **** -0.24
26332 H 130.79573012203898 17.59186674400476 40.749682681253745 H 0.0 **** 0.06
26333 H 132.47987168282592 17.582747372298783 41.325776881118855 H 0.0 **** 0.06
26334 H 131.39455720562734 16.22992204970963 41.72704815525297 H 0.0 **** 0.06
26335 H 131.14605103608076 17.823848947343592 42.47973615730277 H 0.0 **** 0.06
26336 C 161.66193628157257 147.46768266368005 76.1145149305546 C 0.0 **** -0.24
26337 H 162.53320215375044 148.10531025394857 75.96472000859205 H 0.0 **** 0.06
26338 H 161.24536734973094 147.1906450199397 75.14492522318989 H 0.0 **** 0.06
26339 H 160.91172883243928 148.0081555432575 76.69099521092431 H 0.0 **** 0.06
26340 H 161.95771658334516 146.56870920040188 76.65322854565125 H 0.0 **** 0.06
26341 C 36.437860899844296 59.940348710619105 168.30919694293345 C 0.0 **** -0.24
26342 H 35.51430108237915 60.32906531674632 168.73980973423647 H 0.0 **** 0.06
26343 H 36.52217895180708 60.270181494543976 167.27375332698438 H 0.0 **** 0.06
26344 H 36.423479156538264 58.850277799911794 168.3439142475941 H 0.0 **** 0.06
26345 H 37.288815694544084 60.31084642990521 168.8802215009605 H 0.0 **** 0.06
26346 C 127.6022566889987 89.44074320261805 90.48244494782875 C 0.0 **** -0.24
26347 H 127.00731176168838 88.97603328715402 89.69686497892616 H 0.0 **** 0.06
26348 H 127.84169901012692 88.6988150309761 91.24453789199367 H 0.0 **** 0.06
26349 H 127.03411133578805 90.25516922709994 90.93404746347954 H 0.0 **** 0.06
26350 H 128.52420533937735 89.83467481590989 90.05472394909071 H 0.0 **** 0.06
26351 C 19.177079514857212 21.28968432565148 114.22998328539495 C 0.0 **** -0.24
26352 H 19.87916025043691 21.875773616938858 114.8221501905806 H 0.0 **** 0.06
26353 H 18.836160538879057 20.434116896445573 114.81282572074133 H 0.0 **** 0.06
26354 H 19.669507224663988 20.93944203110098 113.32271487299909 H 0.0 **** 0.06
26355 H 18.321784012020345 21.911070320064937 113.9628040360376 H 0.0 **** 0.06
26356 C 35.412833935806916 41.06921088818892 128.23013123249393 C 0.0 **** -0.24
26357 H 35.01296421354594 41.296213093443725 127.24265269977212 H 0.0 **** 0.06
26358 H 35.93105538400907 41.9446316230986 128.6222176536025 H 0.0 **** 0.06
26359 H 36.11280464651358 40.236252205117125 128.15484147311474 H 0.0 **** 0.06
26360 H 34.596578279818246 40.79867720686795 128.9000483295153 H 0.0 **** 0.06
26361 C 180.1829819489347 90.32824747129854 121.85930796909372 C 0.0 **** -0.24
26362 H 180.6060988551683 89.37691625838491 122.18272055585109 H 0.0 **** 0.06
26363 H 180.7611564761837 91.14699029783131 122.28665567762937 H 0.0 **** 0.06
26364 H 179.14844957866276 90.39859129804358 122.19443360304726 H 0.0 **** 0.06
26365 H 180.21669084484162 90.38821862545413 120.77152129358902 H 0.0 **** 0.06
26366 C 92.65466658117879 123.81144023710038 39.96355406866837 C 0.0 **** -0.24
26367 H 92.90643196484231 122.83966201152566 39.538342399301484 H 0.0 **** 0.06
26368 H 93.53115064466786 124.45893097108285 39.932455428823346 H 0.0 **** 0.06
26369 H 92.33312048918538 123.68337171070493 40.997115989571284 H 0.0 **** 0.06
26370 H 91.84852026599873 124.26339367235073 39.38506646473036 H 0.0 **** 0.06
26371 C 89.59820978297921 59.27587658508236 41.855426892718455 C 0.0 **** -0.24
26372 H 89.03605211679064 59.818522733094255 41.096054403244594 H 0.0 **** 0.06
26373 H 90.05816519984859 59.985792635473786 42.54375088965419 H 0.0 **** 0.06
26374 H 90.37486275426102 58.67997166204782 41.375408996834864 H 0.0 **** 0.06
26375 H 88.92450714344761 58.61910672934164 42.40583927811805 H 0.0 **** 0.06
26376 C 141.04883264723077 83.71122520222153 25.77762035043844 C 0.0 **** -0.24
26377 H 140.49637879587596 83.64655185911738 24.840300885164027 H 0.0 **** 0.06
26378 H 141.44510918435066 82.72805144503434 26.033981383763546 H 0.0 **** 0.06
26379 H 140.38198229566746 84.05208395457893 26.569608735626986 H 0.0 **** 0.06
26380 H 141.8721001760715 84.41725021907297 25.666710732410394 H 0.0 **** 0.06
26381 C 125.20105499444321 122.30486452440536 10.166139131979804 C 0.0 **** -0.24
26382 H 125.81922073812757 122.66172066708793 9.342505424803619 H 0.0 **** 0.06
26383 H 124.3919572700039 121.68974157107087 9.773376749490495 H 0.0 **** 0.06
26384 H 124.78384300672019 123.15785094991591 10.701634233834852 H 0.0 **** 0.06
26385 H 125.81149884316096 121.71229356490127 10.846733448604255 H 0.0 **** 0.06
26386 C 10.60951557098096 56.17666880619538 169.39932152014893 C 0.0 **** -0.24
26387 H 10.721181726621438 56.8013830708295 168.51366841744957 H 0.0 **** 0.06
26388 H 11.465726051264255 55.50638361357613 169.48190529606825 H 0.0 **** 0.06
26389 H 9.695041730605368 55.590244965991275 169.31674226809358 H 0.0 **** 0.06
26390 H 10.557039884562073 56.809533315172985 170.28558982703507 H 0.0 **** 0.06
26391 C 58.14504259292934 167.09989921633937 23.05857220838439 C 0.0 **** -0.24
26392 H 58.28052802158321 168.17581902087932 22.93857635873411 H 0.0 **** 0.06
26393 H 58.522366686265244 166.79406440709272 24.03437868534192 H 0.0 **** 0.06
26394 H 58.69331692287116 166.5763770660912 22.275477389303035 H 0.0 **** 0.06
26395 H 57.08558226143235 166.85701627164119 22.984949271545645 H 0.0 **** 0.06
26396 C 62.79638467219159 97.3601798666877 62.14540786888553 C 0.0 **** -0.24
26397 H 63.66751283388896 96.8274721656278 61.76558305707914 H 0.0 **** 0.06
26398 H 62.085856314822564 96.64437550207583 62.55970880292402 H 0.0 **** 0.06
26399 H 62.324007527704936 97.91069905198987 61.33192944924981 H 0.0 **** 0.06
26400 H 63.10597455725379 98.05708746497413 62.924216949565405 H 0.0 **** 0.06
26401 C 82.68337077618577 92.61148584001236 64.47836168279669 C 0.0 **** -0.24
26402 H 82.54430827900745 93.66646119935106 64.24170729336484 H 0.0 **** 0.06
26403 H 81.78620611037132 92.22792138874112 64.96403806915326 H 0.0 **** 0.06
26404 H 83.53557132310752 92.49961856474468 65.14890148696163 H 0.0 **** 0.06
26405 H 82.86725302536178 92.05412610701998 63.560591504648485 H 0.0 **** 0.06
26406 C 95.7543846095669 30.510308222764195 182.4337558802643 C 0.0 **** -0.24
26407 H 96.06001451423288 31.55637314468123 182.3958844620404 H 0.0 **** 0.06
26408 H 94.67256446626106 30.444394468233156 182.31881140547435 H 0.0 **** 0.06
26409 H 96.04466867959081 30.081813708670325 183.39313291573444 H 0.0 **** 0.06
26410 H 96.23981638609973 29.960906237679552 181.62802633454044 H 0.0 **** 0.06
26411 C 7.697822102136598 50.48590796554926 49.556136314453326 C 0.0 **** -0.24
26412 H 8.204836913486787 49.627141508851025 49.99536156695113 H 0.0 **** 0.06
26413 H 7.109843771067972 50.15914109634372 48.69790872331018 H 0.0 **** 0.06
26414 H 8.43774001584623 51.21808667334217 49.23314173467381 H 0.0 **** 0.06
26415 H 7.039043787715457 50.93710421742652 50.29757595442891 H 0.0 **** 0.06
26416 C 125.07591701825288 175.99039837966947 135.08213644061237 C 0.0 **** -0.24
26417 H 126.06369006899138 176.32737465835214 135.39638167595677 H 0.0 **** 0.06
26418 H 125.17658178511351 175.31974467045504 134.22792749581748 H 0.0 **** 0.06
26419 H 124.47152100667097 176.85212683156038 134.79863649042446 H 0.0 **** 0.06
26420 H 124.59321648101621 175.46310538100064 135.90397944984292 H 0.0 **** 0.06
26421 C 119.480961349484 188.15513170807515 84.02705053950586 C 0.0 **** -0.24
26422 H 120.05269517771754 189.0450851596635 83.76499147264286 H 0.0 **** 0.06
26423 H 118.47796653100855 188.23060877534726 83.60711686925566 H 0.0 **** 0.06
26424 H 119.41634638567004 188.07142631160923 85.11140563435612 H 0.0 **** 0.06
26425 H 119.97892095424146 187.27240247753394 83.62388177226751 H 0.0 **** 0.06
26426 C 29.67404850890992 13.542245182559213 184.29811967565118 C 0.0 **** -0.24
26427 H 28.963077339039643 13.073408686853526 184.97825790670848 H 0.0 **** 0.06
26428 H 30.211886458906136 14.331774502704832 184.82305250583556 H 0.0 **** 0.06
26429 H 29.137336040181196 13.96979704131627 183.4507408738055 H 0.0 **** 0.06
26430 H 30.38235238921986 12.795584122889608 183.940088193916 H 0.0 **** 0.06
26431 C 70.56684258591477 148.1377477489466 106.00327799623415 C 0.0 **** -0.24
26432 H 70.171769594921 149.15119669131226 106.07903598327283 H 0.0 **** 0.06
26433 H 71.65612762369386 148.17060900355867 106.01440988931296 H 0.0 **** 0.06
26434 H 70.2258988523894 147.68372967812203 105.07297232674671 H 0.0 **** 0.06
26435 H 70.21191798217507 147.5459606432019 106.84665229965236 H 0.0 **** 0.06
26436 C 60.677552244287824 115.53445020220141 121.64626102590137 C 0.0 **** -0.24
26437 H 61.43958064326483 115.06057747040163 122.26567692268901 H 0.0 **** 0.06
26438 H 59.694035644987764 115.16123327132706 121.93188123756565 H 0.0 **** 0.06
26439 H 60.86422363117862 115.30142565093016 120.59793233938854 H 0.0 **** 0.06
26440 H 60.712956102114276 116.6145350192786 121.79083990017122 H 0.0 **** 0.06
26441 C 126.89073948260881 86.8931685831717 29.306945856229788 C 0.0 **** -0.24
26442 H 126.36770198581507 87.1712864152608 28.39238425945534 H 0.0 **** 0.06
26443 H 127.69156673889015 86.19347936740894 29.069432968217427 H 0.0 **** 0.06
26444 H 126.18913032398504 86.42287604370131 29.9967503381163 H 0.0 **** 0.06
26445 H 127.31150017681702 87.78555639706826 29.77038637202037 H 0.0 **** 0.06
26446 C 49.42023492706157 155.6730944154759 172.61159894912595 C 0.0 **** -0.24
26447 H 49.064496125039 155.40308714335828 173.60554796424174 H 0.0 **** 0.06
26448 H 48.975222537584656 155.00607784737213 171.87235975783238 H 0.0 **** 0.06
26449 H 50.50658548320065 155.57988190584004 172.577560431481 H 0.0 **** 0.06
26450 H 49.136068886448356 156.70161793336348 172.39103671615203 H 0.0 **** 0.06
26451 C 179.59463075670348 128.99249157612746 174.5579046696285 C 0.0 **** -0.24
26452 H 178.73879121927948 128.33046735772143 174.42345647090403 H 0.0 **** 0.06
26453 H 180.08813732446177 128.76206030140833 175.50144446840494 H 0.0 **** 0.06
26454 H 179.25451137580112 130.02849647283654 174.5673048881204 H 0.0 **** 0.06
26455 H 180.29617810586663 128.84874262696303 173.73578773637567 H 0.0 **** 0.06
26456 C 55.255568306374954 151.89127513640645 24.507656706512392 C 0.0 **** -0.24
26457 H 55.933988619592014 151.9773346872265 25.356645706453946 H 0.0 **** 0.06
26458 H 55.717709546354 152.336564713908 23.627208340055375 H 0.0 **** 0.06
26459 H 54.325162087476485 152.41358680329068 24.732879920981517 H 0.0 **** 0.06
26460 H 55.04470448248554 150.83954124273197 24.316683082991887 H 0.0 **** 0.06
26461 C 39.51970211583756 32.77431712379261 130.78093350523253 C 0.0 **** -0.24
26462 H 39.26533868403931 33.67598673746832 130.2231218424725 H 0.0 **** 0.06
26463 H 40.402997249192424 32.31199866901464 130.34083348701546 H 0.0 **** 0.06
26464 H 38.68503216293399 32.074792850295 130.74060320972546 H 0.0 **** 0.06
26465 H 39.72565470344463 33.03584886524963 131.81884648891386 H 0.0 **** 0.06
26466 C 9.364698998234388 104.1482033387878 70.6463838544881 C 0.0 **** -0.24
26467 H 10.348049269525589 103.7444442487191 70.88755708020392 H 0.0 **** 0.06
26468 H 9.422425755273665 105.23547263732121 70.59146769129318 H 0.0 **** 0.06
26469 H 8.65381186964106 103.85990148015051 71.42103036796637 H 0.0 **** 0.06
26470 H 9.036022936085118 103.7514011746573 69.68589035142055 H 0.0 **** 0.06
26471 C 116.68814983327559 57.11842980662533 127.95537770720264 C 0.0 **** -0.24
26472 H 116.75082046151852 57.561283838017516 126.96114464037308 H 0.0 **** 0.06
26473 H 115.94266422030296 57.65345170530986 128.54362718629557 H 0.0 **** 0.06
26474 H 117.6583321352606 57.188638274581905 128.44641307956053 H 0.0 **** 0.06
26475 H 116.39986867497947 56.07066413536862 127.86831013095588 H 0.0 **** 0.06
26476 C 90.31058066620574 8.146310555486878 6.132897925806162 C 0.0 **** -0.24
26477 H 90.77120847298511 7.859524046113222 7.078628976246193 H 0.0 **** 0.06
26478 H 89.38686013305107 7.583650988043445 5.993674025278125 H 0.0 **** 0.06
26479 H 90.9958513002257 7.927638906352826 5.314422798923431 H 0.0 **** 0.06
26480 H 90.08892236885657 9.21255021908135 6.145316428460575 H 0.0 **** 0.06
26481 C 49.015294399419176 134.77922549779504 25.957573369822853 C 0.0 **** -0.24
26482 H 48.60121646246087 135.12133056385994 25.008483651500512 H 0.0 **** 0.06
26483 H 49.350659362418924 133.74655780156047 25.856477007419883 H 0.0 **** 0.06
26484 H 48.24865492812451 134.8384519706738 26.73001742878286 H 0.0 **** 0.06
26485 H 49.858757037234014 135.41063895476896 26.234122596262736 H 0.0 **** 0.06
26486 C 163.0556519328063 165.89498582984203 81.05363929195639 C 0.0 **** -0.24
26487 H 162.42368165887592 165.74457306223712 80.17915817447485 H 0.0 **** 0.06
26488 H 163.17159048012903 164.9500331540209 81.58446353509845 H 0.0 **** 0.06
26489 H 162.594562987878 166.62966476019554 81.71317437068669 H 0.0 **** 0.06
26490 H 164.03469614377582 166.25574756761392 80.73662335061164 H 0.0 **** 0.06
26491 C 74.40122477077557 190.9822662363274 143.45234900972957 C 0.0 **** -0.24
26492 H 73.9832040858746 190.42486271676114 142.61371397607147 H 0.0 **** 0.06
26493 H 75.28079902914209 190.46238921406896 143.83209061741832 H 0.0 **** 0.06
26494 H 73.65588320794711 191.06122119791166 144.2430934237064 H 0.0 **** 0.06
26495 H 74.68453542585854 191.9810189731045 143.11888875041882 H 0.0 **** 0.06
26496 C 136.61882768242083 163.75844935001072 122.10669325910487 C 0.0 **** -0.24
26497 H 135.93756128437565 164.60874293411456 122.14061378044198 H 0.0 **** 0.06
26498 H 137.63230897913604 164.11330302539184 121.91802894169848 H 0.0 **** 0.06
26499 H 136.3150519820113 163.08192504905247 121.30769458448731 H 0.0 **** 0.06
26500 H 136.58931280693912 163.23167446908178 123.05978179111582 H 0.0 **** 0.06
26501 C 11.421059958859473 27.439196724986346 28.596750179684804 C 0.0 **** -0.24
26502 H 11.847300914385215 27.003975533502285 29.50086513572714 H 0.0 **** 0.06
26503 H 10.902240958329998 28.364157359413383 28.849824015266904 H 0.0 **** 0.06
26504 H 10.715918171201338 26.73665906584307 28.15281710601576 H 0.0 **** 0.06
26505 H 12.21834678805675 27.652464031618706 27.885104594337633 H 0.0 **** 0.06
26506 C 150.2557375614077 121.10683273254926 28.35743403629516 C 0.0 **** -0.24
26507 H 150.15012293467046 120.10128983240213 28.765016807323946 H 0.0 **** 0.06
26508 H 150.36846448324437 121.04973721617773 27.27432903369666 H 0.0 **** 0.06
26509 H 151.13477065335957 121.58414936712609 28.789470280297735 H 0.0 **** 0.06
26510 H 149.36859588121368 121.69211176302497 28.599503818673895 H 0.0 **** 0.06
26511 C 15.730788748247619 54.208684566200944 194.82924360522014 C 0.0 **** -0.24
26512 H 15.770707183666048 53.27652046580053 195.39320397704296 H 0.0 **** 0.06
26513 H 15.289113607233503 54.02105632823306 193.84999418835878 H 0.0 **** 0.06
26514 H 16.739841793714845 54.599759953663906 194.70429703409764 H 0.0 **** 0.06
26515 H 15.122752805541268 54.933742673078186 195.36922202367842 H 0.0 **** 0.06
26516 C 159.7229666320677 132.58289807677806 38.48572843918643 C 0.0 **** -0.24
26517 H 160.46473564487195 132.47254350883458 39.27549754517912 H 0.0 **** 0.06
26518 H 160.2113552179501 132.50159565411332 37.51388214456745 H 0.0 **** 0.06
26519 H 159.24364447557792 133.55907770858488 38.5717012346813 H 0.0 **** 0.06
26520 H 158.97137202732083 131.79935816819082 38.581156110757235 H 0.0 **** 0.06
26521 C 197.67310356520014 7.559445213694289 12.101620850863782 C 0.0 **** -0.24
26522 H 197.4480535275157 6.88192668258182 12.92563894257242 H 0.0 **** 0.06
26523 H 198.73149119158313 7.819449154387883 12.12407679777894 H 0.0 **** 0.06
26524 H 197.07368712849174 8.46397378834709 12.200987138009225 H 0.0 **** 0.06
26525 H 197.43821556683994 7.070181293664973 11.155836442123757 H 0.0 **** 0.06
26526 C 76.63913910937484 159.1230271708746 176.8449737258985 C 0.0 **** -0.24
26527 H 77.02724322001163 158.26448503297155 176.29674906145272 H 0.0 **** 0.06
26528 H 75.70407317966928 159.45196268842906 176.39168263515685 H 0.0 **** 0.06
26529 H 77.36636491668229 159.93571069236881 176.80831507602895 H 0.0 **** 0.06
26530 H 76.46099280047181 158.8417672639089 177.8820462412463 H 0.0 **** 0.06
26531 C 182.32410546955896 138.9227480064867 188.78172486573413 C 0.0 **** -0.24
26532 H 181.83281237804695 139.8765764621952 188.5895138939926 H 0.0 **** 0.06
26533 H 182.43689355930357 138.3776380071905 187.84452605006408 H 0.0 **** 0.06
26534 H 181.7195089927588 138.335740383224 189.47304883576646 H 0.0 **** 0.06
26535 H 183.30579747582345 139.10113546243406 189.2197492802321 H 0.0 **** 0.06
26536 C 62.20541447670945 194.86773269964797 88.56004787055429 C 0.0 **** -0.24
26537 H 61.97763744369786 194.55338466308277 89.57806731779493 H 0.0 **** 0.06
26538 H 61.29537923009593 195.22696269718642 88.07917746330247 H 0.0 **** 0.06
26539 H 62.60223778440957 194.02046630757502 87.99907938034687 H 0.0 **** 0.06
26540 H 62.94538910551745 195.66712918115195 88.5836587987784 H 0.0 **** 0.06
26541 C 25.893824104561205 13.760435178984608 73.99958759809516 C 0.0 **** -0.24
26542 H 25.067730818959504 13.843377419401548 74.70626302818224 H 0.0 **** 0.06
26543 H 25.596389100767354 14.186438362006342 73.04168918164933 H 0.0 **** 0.06
26544 H 26.154124081283044 12.710736232229557 73.86661125268691 H 0.0 **** 0.06
26545 H 26.757636192726366 14.30268334010605 74.38632177868566 H 0.0 **** 0.06
26546 C 25.859421001775132 51.15862190528608 31.478658289953927 C 0.0 **** -0.24
26547 H 25.506962181234 52.18569174411357 31.38058167880652 H 0.0 **** 0.06
26548 H 25.801635454007 50.661527161684546 30.510757308035366 H 0.0 **** 0.06
26549 H 25.23587772741149 50.62873119946255 32.19849459058052 H 0.0 **** 0.06
26550 H 26.892033690509123 51.161638501591824 31.82653269332829 H 0.0 **** 0.06
26551 C 159.06696108761722 103.19622622971855 105.9324024437322 C 0.0 **** -0.24
26552 H 160.06801656689714 102.87901343348088 105.64237723002168 H 0.0 **** 0.06
26553 H 158.4146235117836 103.18509987323088 105.0587917809411 H 0.0 **** 0.06
26554 H 159.10950960247118 104.20686769385543 106.34004832540401 H 0.0 **** 0.06
26555 H 158.67478829605142 102.5161332871377 106.68784718029895 H 0.0 **** 0.06
26556 C 78.19687003580319 50.47439934695308 187.75439654600316 C 0.0 **** -0.24
26557 H 78.13472701777366 49.532577034565236 187.20975662180828 H 0.0 **** 0.06
26558 H 79.24430323447979 50.741796710242056 187.8975958785134 H 0.0 **** 0.06
26559 H 77.71432732345161 50.36452895358164 188.72509767910702 H 0.0 **** 0.06
26560 H 77.69539595460414 51.25660300988869 187.18507691374478 H 0.0 **** 0.06
26561 C 125.9427882216358 182.00645842075946 124.23059075635172 C 0.0 **** -0.24
26562 H 126.71044019006342 182.1452157926634 123.46954442300435 H 0.0 **** 0.06
26563 H 125.48123743366943 182.96735708496126 124.45999722668438 H 0.0 **** 0.06
26564 H 126.39626187716166 181.59664223375273 125.13281634236745 H 0.0 **** 0.06
26565 H 125.1842896254469 181.31744754689078 123.8603981633521 H 0.0 **** 0.06
26566 C 21.261159168205126 12.634180121050349 135.57505449263186 C 0.0 **** -0.24
26567 H 21.20326295975437 12.116474067456835 134.6179885925381 H 0.0 **** 0.06
26568 H 21.735248004777958 11.984688175103997 136.31124990142655 H 0.0 **** 0.06
26569 H 20.25650875526445 12.891116645462148 135.90991691050823 H 0.0 **** 0.06
26570 H 21.850196480003177 13.544993150496083 135.45989638444436 H 0.0 **** 0.06
26571 C 60.14429816492189 133.36797966853226 131.65044947043884 C 0.0 **** -0.24
26572 H 59.5744310614098 134.15125746625907 132.14987619134632 H 0.0 **** 0.06
26573 H 59.699592990781454 132.39808574690224 131.87382757292488 H 0.0 **** 0.06
26574 H 61.17508385921843 133.38681374128345 132.00542246839564 H 0.0 **** 0.06
26575 H 60.12834149450285 133.53711656293174 130.5744319300985 H 0.0 **** 0.06
26576 C 18.10450877058895 23.39557260284505 23.86955626676547 C 0.0 **** -0.24
26577 H 19.041659618503758 23.894295660462262 24.117246168134074 H 0.0 **** 0.06
26578 H 17.79524997124699 23.681810780950514 22.864795916505216 H 0.0 **** 0.06
26579 H 17.336815953429323 23.69031481578446 24.584735573077893 H 0.0 **** 0.06
26580 H 18.246173721727132 22.315184373434192 23.912475031270617 H 0.0 **** 0.06
26581 C 135.25538026090828 102.39850891981581 103.08096624549543 C 0.0 **** -0.24
26582 H 136.33315624755096 102.3664182991107 102.91825232867541 H 0.0 **** 0.06
26583 H 134.8053655798676 101.4786144535878 102.70900977238716 H 0.0 **** 0.06
26584 H 134.83304909245277 103.2514782022987 102.54869987049591 H 0.0 **** 0.06
26585 H 135.05211446858954 102.49884651697087 104.1466505534598 H 0.0 **** 0.06
26586 C 158.3786353855512 36.1882824499739 73.35411856583659 C 0.0 **** -0.24
26587 H 158.97845512068466 36.94546054336024 72.84854827836196 H 0.0 **** 0.06
26588 H 157.33304156283987 36.3046017720843 73.06941863589354 H 0.0 **** 0.06
26589 H 158.4774766585585 36.30741477640987 74.43345196734852 H 0.0 **** 0.06
26590 H 158.72659165190862 35.19704733269516 73.06496801261513 H 0.0 **** 0.06
26591 C 4.108620688831024 22.942981943360238 135.02276403648236 C 0.0 **** -0.24
26592 H 4.766937857827514 23.254141016063727 135.8340082805253 H 0.0 **** 0.06
26593 H 3.9142028476597375 23.793300284472565 134.36750366868426 H 0.0 **** 0.06
26594 H 3.1684829707081974 22.580563960918752 135.4371237030832 H 0.0 **** 0.06
26595 H 4.585456123138869 22.146291587110696 134.45224399659938 H 0.0 **** 0.06
26596 C 198.67509668455412 169.52234967120916 28.305491282323146 C 0.0 **** -0.24
26597 H 197.94440071841916 169.84594291139425 29.04749231057815 H 0.0 **** 0.06
26598 H 198.6311743863323 170.18416729624352 27.44056646269135 H 0.0 **** 0.06
26599 H 198.45020227895787 168.50193135369054 27.995617694314944 H 0.0 **** 0.06
26600 H 199.67355929554856 169.55850387280367 28.740854307199754 H 0.0 **** 0.06
26601 C 193.19084548249435 20.40105291156675 57.3414760587176 C 0.0 **** -0.24
26602 H 193.77676789599593 19.74726446150993 57.98594966312743 H 0.0 **** 0.06
26603 H 192.80064301698332 21.233784109721938 57.92694123939441 H 0.0 **** 0.06
26604 H 192.3612486108312 19.839845176669485 56.91111040304406 H 0.0 **** 0.06
26605 H 193.8239659112616 20.78356655098949 56.540734198983216 H 0.0 **** 0.06
26606 C 87.21063857497651 180.50844282274915 187.61956737677198 C 0.0 **** -0.24
26607 H 86.69317518394612 179.63106395339133 188.00662502774492 H 0.0 **** 0.06
26608 H 88.08282744864101 180.7183838038244 188.23891706920597 H 0.0 **** 0.06
26609 H 86.53673452610957 181.3649154666379 187.63863631798876 H 0.0 **** 0.06
26610 H 87.52854511471094 180.32000690701423 186.59424400594284 H 0.0 **** 0.06
26611 C 75.28255274056698 192.07875473158634 103.0829166728297 C 0.0 **** -0.24
26612 H 74.65654814739122 191.7565231678833 102.25028123619097 H 0.0 **** 0.06
26613 H 75.73532812484177 191.20679619771403 103.55479742734582 H 0.0 **** 0.06
26614 H 74.67197903532974 192.61086349634468 103.81122131910087 H 0.0 **** 0.06
26615 H 76.06639313862797 192.73954798046685 102.71284885092876 H 0.0 **** 0.06
26616 C 27.554974803653295 110.31780642915447 115.06488288778473 C 0.0 **** -0.24
26617 H 26.687158302855835 110.65477097838124 114.49848807687687 H 0.0 **** 0.06
26618 H 27.501499795100543 109.23800484753903 115.20352504971532 H 0.0 **** 0.06
26619 H 27.56656165844052 110.80949194163048 116.03802717367904 H 0.0 **** 0.06
26620 H 28.464128775406678 110.57042009959596 114.51874363524152 H 0.0 **** 0.06
26621 C 76.14626397925439 73.61395099790661 161.61601627488682 C 0.0 **** -0.24
26622 H 75.44653057874471 73.60319659385635 160.78033619652493 H 0.0 **** 0.06
26623 H 77.09269285556215 73.17233754166404 161.302262162178 H 0.0 **** 0.06
26624 H 75.73243808834212 73.0375965112795 162.44320447045743 H 0.0 **** 0.06
26625 H 76.31302044690187 74.64216059469709 161.9374894365019 H 0.0 **** 0.06
26626 C 50.60812788519857 63.158017049576245 75.82878331732587 C 0.0 **** -0.24
26627 H 51.57753820943854 63.64645475249489 75.92286251797839 H 0.0 **** 0.06
26628 H 50.27952582613301 63.20067813771118 74.79066223212493 H 0.0 **** 0.06
26629 H 49.88164746324421 63.66800222059885 76.46084738704025 H 0.0 **** 0.06
26630 H 50.69380004197855 62.11693308749989 76.14076113215998 H 0.0 **** 0.06
26631 C 154.6245827903811 51.63442903446459 160.84014320176254 C 0.0 **** -0.24
26632 H 155.22752516527743 50.72937505877455 160.76880269153526 H 0.0 **** 0.06
26633 H 153.56891410422804 51.373794805124135 160.76979344053728 H 0.0 **** 0.06
26634 H 154.88683719430776 52.310323832258305 160.02671433920142 H 0.0 **** 0.06
26635 H 154.8164472287632 52.12414772247389 161.79502713896562 H 0.0 **** 0.06
26636 C 156.4166920319571 162.13562232617357 105.36205774198424 C 0.0 **** -0.24
26637 H 155.93169997494368 162.07198957464928 106.33687530998799 H 0.0 **** 0.06
26638 H 156.3926614931972 161.15873693602572 104.88024955743404 H 0.0 **** 0.06
26639 H 157.45219164641196 162.45190038599054 105.49196325644328 H 0.0 **** 0.06
26640 H 155.89032181384465 162.8616884113024 104.74152076337919 H 0.0 **** 0.06
26641 C 4.920444828885003 8.970992003673956 189.20985690238484 C 0.0 **** -0.24
26642 H 5.246365721037492 9.804751781853184 188.5890196781962 H 0.0 **** 0.06
26643 H 4.833110821508498 8.07395577974944 188.5964382224724 H 0.0 **** 0.06
26644 H 3.9522550078395895 9.203878962807835 189.65221286744867 H 0.0 **** 0.06
26645 H 5.649975572381166 8.800038774713101 190.00219495822037 H 0.0 **** 0.06
26646 C 74.67269507887198 25.52907289521312 39.657962710604 C 0.0 **** -0.24
26647 H 74.14632589058613 26.42622802374504 39.33067101155871 H 0.0 **** 0.06
26648 H 74.37107873188393 24.685352835153424 39.036731887063766 H 0.0 **** 0.06
26649 H 74.42510956514275 25.32137325997951 40.69846928694369 H 0.0 **** 0.06
26650 H 75.746989868529 25.683552105704337 39.56276534865562 H 0.0 **** 0.06
26651 C 102.06188569238907 55.44330473269102 3.8225269689044126 C 0.0 **** -0.24
26652 H 102.26747918612216 56.105977654930754 2.9822510724973483 H 0.0 **** 0.06
26653 H 100.98462167037889 55.37724649420127 3.9769751207407467 H 0.0 **** 0.06
26654 H 102.53390867289798 55.83805711541041 4.721588991006399 H 0.0 **** 0.06
26655 H 102.46015682976054 54.45157708417368 3.6083049971610137 H 0.0 **** 0.06
26656 C 121.8981637345695 133.46017477074986 177.05731678085832 C 0.0 **** -0.24
26657 H 121.4537322169393 132.49412159036038 176.81586785836376 H 0.0 **** 0.06
26658 H 122.95347056359643 133.32514658573214 177.2960354128497 H 0.0 **** 0.06
26659 H 121.38284735705366 133.8922513829887 177.91531358795294 H 0.0 **** 0.06
26660 H 121.80231781384973 134.12826903895422 176.2017524769238 H 0.0 **** 0.06
26661 C 79.33484503411452 157.23672108149398 143.40814631866792 C 0.0 **** -0.24
26662 H 79.11146160917846 157.89728291664534 142.5694892839687 H 0.0 **** 0.06
26663 H 79.16870185615403 156.20190564787723 143.10768807116736 H 0.0 **** 0.06
26664 H 78.68313925463173 157.48096955203818 144.24613612265614 H 0.0 **** 0.06
26665 H 80.37524217202582 157.3669281042599 143.70563010664236 H 0.0 **** 0.06
26666 C 174.91354187227017 183.27781693793276 2.319179113297558 C 0.0 **** -0.24
26667 H 174.80641829520005 183.28074350322862 3.4040766499787267 H 0.0 **** 0.06
26668 H 175.9201954731464 183.60163653986427 2.052461842527137 H 0.0 **** 0.06
26669 H 174.18425636630485 183.95904133817697 1.8803230336564312 H 0.0 **** 0.06
26670 H 174.7429678255947 182.26981674767603 1.9407986191675022 H 0.0 **** 0.06
26671 C 155.68653400169154 13.089156720892731 180.2328105678626 C 0.0 **** -0.24
26672 H 156.1563852654993 12.34720364022175 180.87724602995215 H 0.0 **** 0.06
26673 H 154.60704980363937 13.06819137035643 180.38033680053437 H 0.0 **** 0.06
26674 H 155.91576020181728 12.862034767769643 179.19150290081453 H 0.0 **** 0.06
26675 H 156.06864944464746 14.079561714424102 180.48076101790878 H 0.0 **** 0.06
26676 C 17.060070722801385 169.24137281037753 171.03352297368752 C 0.0 **** -0.24
26677 H 17.544445370265862 169.2138056947639 170.05755118465518 H 0.0 **** 0.06
26678 H 15.97982922977036 169.16295302668738 170.90534588203278 H 0.0 **** 0.06
26679 H 17.300603127113106 170.17970180823147 171.5325275024707 H 0.0 **** 0.06
26680 H 17.415778306120473 168.40682926708 171.63854685108197 H 0.0 **** 0.06
26681 C 39.41095488347442 172.05517112270408 185.27360322704405 C 0.0 **** -0.24
26682 H 38.866014866273645 172.74601051059426 184.6315347222418 H 0.0 **** 0.06
26683 H 38.75173645408667 171.24111912812305 185.57496031426675 H 0.0 **** 0.06
26684 H 39.763962654254684 172.58325525028047 186.15908633741412 H 0.0 **** 0.06
26685 H 40.26431226562724 171.64931234811343 184.72843668373585 H 0.0 **** 0.06
26686 C 67.43826291845488 33.973572724481585 35.47439053365093 C 0.0 **** -0.24
26687 H 67.49565513099594 34.42500976984661 34.484072703751025 H 0.0 **** 0.06
26688 H 66.40627504523616 33.692907076573135 35.68551729944136 H 0.0 **** 0.06
26689 H 67.77933999593438 34.69070300115635 36.2208316022851 H 0.0 **** 0.06
26690 H 68.07052705070481 33.08600087169589 35.50657695665325 H 0.0 **** 0.06
26691 C 107.87294031402558 2.9940840537147153 97.62863864561322 C 0.0 **** -0.24
26692 H 108.00963207883763 3.6777040298707107 96.79073305900809 H 0.0 **** 0.06
26693 H 108.60780398090168 2.191399420895465 97.56643369630933 H 0.0 **** 0.06
26694 H 106.86792757369074 2.5712724509866405 97.59133625564289 H 0.0 **** 0.06
26695 H 108.00361470557664 3.5365591336248485 98.56467425432058 H 0.0 **** 0.06
26696 C 114.13270135361938 91.58340075435495 193.2355135672967 C 0.0 **** -0.24
26697 H 113.86973635343054 90.91437495327122 192.415502231118 H 0.0 **** 0.06
26698 H 115.01800899399893 91.20145929388474 193.7442873810743 H 0.0 **** 0.06
26699 H 113.30268647851523 91.63755624837768 193.93914283547466 H 0.0 **** 0.06
26700 H 114.34086390378093 92.57703339585609 192.84054245800783 H 0.0 **** 0.06
26701 C 165.7203387669673 86.3286543937244 112.34118565938246 C 0.0 **** -0.24
26702 H 164.85958868746917 86.10989466774842 112.97287716503916 H 0.0 **** 0.06
26703 H 166.06760036842672 87.3426985341448 112.53874714231537 H 0.0 **** 0.06
26704 H 165.43345225012337 86.23937559868733 111.29389005453274 H 0.0 **** 0.06
26705 H 166.52024918743285 85.62143358392211 112.55978282604457 H 0.0 **** 0.06
26706 C 133.9089661090875 130.70956764446538 127.83415031944315 C 0.0 **** -0.24
26707 H 132.9969637014857 130.11819465576724 127.90601301754427 H 0.0 **** 0.06
26708 H 133.6923255233404 131.74485464930734 128.09625400591784 H 0.0 **** 0.06
26709 H 134.29221661116287 130.66480750940786 126.8143845225409 H 0.0 **** 0.06
26710 H 134.65643482739551 130.30958743717952 128.52003081441987 H 0.0 **** 0.06
26711 C 70.37177264728152 10.825780048552502 108.87188826429036 C 0.0 **** -0.24
26712 H 71.06409262764728 11.667074332645427 108.8424493210936 H 0.0 **** 0.06
26713 H 70.0423883738937 10.66223230807148 109.89846940631614 H 0.0 **** 0.06
26714 H 70.87097734564917 9.930740852050121 108.50328122901419 H 0.0 **** 0.06
26715 H 69.5075519331623 11.044359011084737 108.2434867144047 H 0.0 **** 0.06
26716 C 65.19770931439496 167.95547434837948 88.94580425453262 C 0.0 **** -0.24
26717 H 64.93643085231139 168.72752828344508 89.6687267566333 H 0.0 **** 0.06
26718 H 65.46600330591866 168.4211906017531 87.99731366598905 H 0.0 **** 0.06
26719 H 64.34360841992532 167.29361468378693 88.798518296699 H 0.0 **** 0.06
26720 H 66.04363889383023 167.37799970846785 89.32014753696893 H 0.0 **** 0.06
26721 C 178.47053861153307 170.73092796749998 138.39544466893182 C 0.0 **** -0.24
26722 H 178.09395027191144 171.74558008879492 138.26745260168406 H 0.0 **** 0.06
26723 H 179.40424860668514 170.75808747812852 138.95806328723327 H 0.0 **** 0.06
26724 H 178.64775018470823 170.2826753152745 137.41824546606873 H 0.0 **** 0.06
26725 H 177.73607691443212 170.13645464415234 138.94005388148068 H 0.0 **** 0.06
26726 C 96.67578443797484 5.320345868086065 152.41470556920282 C 0.0 **** -0.24
26727 H 96.88060315725494 4.5001597861142955 153.1036321188971 H 0.0 **** 0.06
26728 H 96.82409008337387 6.271153537214957 152.92844668528713 H 0.0 **** 0.06
26729 H 95.64514984411278 5.252252490107992 152.06516969410882 H 0.0 **** 0.06
26730 H 97.35339211530123 5.257231136962162 151.56285695391603 H 0.0 **** 0.06
26731 C 129.4050799655542 83.60154319131277 198.6782878630251 C 0.0 **** -0.24
26732 H 129.016316507506 83.71281537042029 199.6905374170347 H 0.0 **** 0.06
26733 H 130.40784715416302 83.177017686704 198.7188307872767 H 0.0 **** 0.06
26734 H 129.4433594567288 84.57858690692797 198.19521957647527 H 0.0 **** 0.06
26735 H 128.75209863426232 82.94033324829695 198.10948785135895 H 0.0 **** 0.06
26736 C 67.28930518056693 38.17470782286374 152.0876818884306 C 0.0 **** -0.24
26737 H 67.18715245488067 37.719336581830234 151.10223653070156 H 0.0 **** 0.06
26738 H 68.04527871517892 37.6359666565737 152.65937469332889 H 0.0 **** 0.06
26739 H 66.33443227079124 38.12608987923771 152.6100473548384 H 0.0 **** 0.06
26740 H 67.59133171561605 39.21636283614184 151.97608663270898 H 0.0 **** 0.06
26741 C 84.34620994328952 198.51492997396244 152.04836296050232 C 0.0 **** -0.24
26742 H 83.75914969070345 198.7230765502746 151.15432385231784 H 0.0 **** 0.06
26743 H 85.39034595366581 198.77201743306333 151.86509880307028 H 0.0 **** 0.06
26744 H 84.27035367923182 197.45513453869046 152.29399310895286 H 0.0 **** 0.06
26745 H 83.96600075843759 199.10954195964405 152.87904776583787 H 0.0 **** 0.06
26746 C 104.08732804576968 187.53685660049013 27.6581402041042 C 0.0 **** -0.24
26747 H 103.80462670368979 188.28906398694608 26.921705766681512 H 0.0 **** 0.06
26748 H 104.74615823691295 187.9856178379159 28.40162377199468 H 0.0 **** 0.06
26749 H 104.60533072065613 186.71772341590767 27.16054326755733 H 0.0 **** 0.06
26750 H 103.1919215612609 187.1554302822342 28.149143135196923 H 0.0 **** 0.06
26751 C 108.71357720625278 66.42435615344425 87.3007000471909 C 0.0 **** -0.24
26752 H 108.46000403845755 67.39369090189018 87.72942078135267 H 0.0 **** 0.06
26753 H 109.40560815637042 65.90399289122661 87.9624061069998 H 0.0 **** 0.06
26754 H 109.1810098496683 66.56971691779376 86.32644716970202 H 0.0 **** 0.06
26755 H 107.80661041484777 65.831400971292 87.18280995787373 H 0.0 **** 0.06
26756 C 20.58405685346719 58.85263838923058 21.46074268161192 C 0.0 **** -0.24
26757 H 19.577379223939033 58.653362477568166 21.09532933769134 H 0.0 **** 0.06
26758 H 20.551889115136134 59.03495173711295 22.53557606088657 H 0.0 **** 0.06
26759 H 20.98638805037831 59.73085004392085 20.95534324584463 H 0.0 **** 0.06
26760 H 21.221506095695048 57.99234519878371 21.257182450615517 H 0.0 **** 0.06
26761 C 195.08918293557682 71.22809487473108 99.50054767119201 C 0.0 **** -0.24
26762 H 195.56012754412325 72.21115048594379 99.49343949227978 H 0.0 **** 0.06
26763 H 194.07182517953473 71.31027381500593 99.1153392279821 H 0.0 **** 0.06
26764 H 195.06097100564352 70.84637954277503 100.5209074923485 H 0.0 **** 0.06
26765 H 195.66197402601796 70.54585346053409 98.87256622440509 H 0.0 **** 0.06
26766 C 7.535811587979481 148.23460045669037 5.040470927458529 C 0.0 **** -0.24
26767 H 7.2931929166197165 148.20605396426245 3.978721457769552 H 0.0 **** 0.06
26768 H 8.609618077109644 148.37312531188584 5.16454413495282 H 0.0 **** 0.06
26769 H 7.233302412324321 147.29733328842855 5.508191089675165 H 0.0 **** 0.06
26770 H 7.005658261103292 149.0622157915032 5.512355449890208 H 0.0 **** 0.06
26771 C 131.47655863267644 7.546912878261821 162.97101766277 C 0.0 **** -0.24
26772 H 130.40457502834215 7.743077618782536 162.93710242145028 H 0.0 **** 0.06
26773 H 132.02008458492236 8.442134059091671 162.67013522198715 H 0.0 **** 0.06
26774 H 131.7168193687425 6.729902088330874 162.29018079198102 H 0.0 **** 0.06
26775 H 131.7629063440542 7.2707163150045915 163.98514788099374 H 0.0 **** 0.06
26776 C 98.0707134010832 26.72585273892153 145.9636813081289 C 0.0 **** -0.24
26777 H 97.55041484385126 26.84101610209629 145.01222898775796 H 0.0 **** 0.06
26778 H 97.69389441996682 25.84187478228428 146.47880859756913 H 0.0 **** 0.06
26779 H 97.89657104928386 27.607307251866786 146.58061166131301 H 0.0 **** 0.06
26780 H 99.13992096559187 26.61379844903159 145.78240882357443 H 0.0 **** 0.06
26781 C 57.877843117288194 189.53597461791838 152.16142375222375 C 0.0 **** -0.24
26782 H 57.16280688852629 190.05417727226637 152.7994447993181 H 0.0 **** 0.06
26783 H 57.80938586349703 188.4622239106005 152.33866010723423 H 0.0 **** 0.06
26784 H 58.885956253057145 189.8789807613304 152.39181765439292 H 0.0 **** 0.06
26785 H 57.65173298134039 189.74671308512103 151.11649783515497 H 0.0 **** 0.06
26786 C 126.45914058390352 27.06942456342928 128.1631819677865 C 0.0 **** -0.24
26787 H 125.56391113076296 27.690290622947302 128.20848388058448 H 0.0 **** 0.06
26788 H 126.17507205899449 26.019010471693008 128.22126791298058 H 0.0 **** 0.06
26789 H 127.11451720798891 27.315659597628922 128.99853127661913 H 0.0 **** 0.06
26790 H 126.9806846576987 27.254270091713977 127.22445273277117 H 0.0 **** 0.06
26791 C 185.56037748742517 144.40290061673153 105.90158161595684 C 0.0 **** -0.24
26792 H 184.76673424154973 143.65654587246823 105.8624065749533 H 0.0 **** 0.06
26793 H 185.26469187060673 145.27868512456027 105.32421242098462 H 0.0 **** 0.06
26794 H 186.47430088588385 143.98171439791105 105.48288976027533 H 0.0 **** 0.06
26795 H 185.73547804491065 144.69219292635717 106.93817239987595 H 0.0 **** 0.06
26796 C 51.18398002022707 51.40159719547526 129.9992608935832 C 0.0 **** -0.24
26797 H 50.432864887830306 52.0324568461572 130.47376360616798 H 0.0 **** 0.06
26798 H 50.7287502831951 50.45645925825686 129.70294205635554 H 0.0 **** 0.06
26799 H 51.99368324024152 51.21018867139466 130.7034754605362 H 0.0 **** 0.06
26800 H 51.57891793853645 51.906456918448 129.11805128870284 H 0.0 **** 0.06
26801 C 61.87830745054204 45.793421681948516 101.5939910102093 C 0.0 **** -0.24
26802 H 61.42424173656747 46.1703102401908 100.6777142957242 H 0.0 **** 0.06
26803 H 62.34180725403084 44.82600246394506 101.39782858995227 H 0.0 **** 0.06
26804 H 61.11170593124952 45.680233368872976 102.35978221759112 H 0.0 **** 0.06
26805 H 62.636263354413856 46.49597928013928 101.93962425417752 H 0.0 **** 0.06
26806 C 120.83700765666023 23.0592566933652 183.07940101656632 C 0.0 **** -0.24
26807 H 120.96102416472147 23.17896249946847 184.15551351066352 H 0.0 **** 0.06
26808 H 120.52040186733782 24.006093171409503 182.64249126603323 H 0.0 **** 0.06
26809 H 120.08090986915678 22.29822567746379 182.88378753841886 H 0.0 **** 0.06
26810 H 121.78354114770556 22.751662216846398 182.6356616150412 H 0.0 **** 0.06
26811 C 192.5608601542804 92.3339248686093 21.948559244405374 C 0.0 **** -0.24
26812 H 193.23332666537766 92.87659513557074 22.61367688539798 H 0.0 **** 0.06
26813 H 193.01399917314257 91.38206490502228 21.67220021351622 H 0.0 **** 0.06
26814 H 192.38280548675556 92.92587608011098 21.050808176379803 H 0.0 **** 0.06
26815 H 191.61551439326018 92.15209921650111 22.45806338419365 H 0.0 **** 0.06
26816 C 30.96344219681572 98.90355033223261 196.41913271143414 C 0.0 **** -0.24
26817 H 30.654040190001638 99.842014174967 195.95916347928505 H 0.0 **** 0.06
26818 H 31.023041282542863 99.03143673888843 197.50026208031693 H 0.0 **** 0.06
26819 H 31.941624923395693 98.61501676486733 196.03311893211946 H 0.0 **** 0.06
26820 H 30.23715860110474 98.12649804290027 196.1841337190216 H 0.0 **** 0.06
26821 C 2.788713230984591 34.202432293452546 0.4127525087326376 C 0.0 **** -0.24
26822 H 2.4283770087246737 34.979950555625294 -0.26077688145332445 H 0.0 **** 0.06
26823 H 2.5719819849427807 34.485273621295164 1.4432271803019603 H 0.0 **** 0.06
26824 H 3.865707913870885 34.08422592864838 0.2874272399536153 H 0.0 **** 0.06
26825 H 2.290361148707632 33.26215298584077 0.1812192183521404 H 0.0 **** 0.06
26826 C 86.12260761044078 162.54775335450714 161.08804203119178 C 0.0 **** -0.24
26827 H 86.32928979294883 163.38940587804305 161.74819516598546 H 0.0 **** 0.06
26828 H 87.00532052621634 161.91055128489842 161.02426007032022 H 0.0 **** 0.06
26829 H 85.86925706756679 162.91937894148393 160.09495864264488 H 0.0 **** 0.06
26830 H 85.28656305503131 161.97167731360315 161.48475424581667 H 0.0 **** 0.06
26831 C 65.4588439617316 131.145116824322 175.52814311610257 C 0.0 **** -0.24
26832 H 65.27189800008004 130.10390385038417 175.26238294746219 H 0.0 **** 0.06
26833 H 64.65667165874905 131.76947841221173 175.13590993832736 H 0.0 **** 0.06
26834 H 66.41026099599506 131.46354701201935 175.10177879913005 H 0.0 **** 0.06
26835 H 65.49663393844384 131.24061441452082 176.61370280096656 H 0.0 **** 0.06
26836 C 92.2046051276487 96.18605386407285 144.57726229068334 C 0.0 **** -0.24
26837 H 91.55471093552231 96.02392488501152 145.43708286034303 H 0.0 **** 0.06
26838 H 91.76472664381674 95.71865458617947 143.6960656471282 H 0.0 **** 0.06
26839 H 93.18214027966584 95.74438184129235 144.77294967240812 H 0.0 **** 0.06
26840 H 92.31745967527976 97.25601012724951 144.40321884065622 H 0.0 **** 0.06
26841 C 34.30392026492564 189.0820331671667 68.63946497631534 C 0.0 **** -0.24
26842 H 34.73220056694802 188.18506253075492 68.19248249841768 H 0.0 **** 0.06
26843 H 33.25875054794933 189.17090845815213 68.34208955558279 H 0.0 **** 0.06
26844 H 34.85506265098388 189.95790202570458 68.29720850230336 H 0.0 **** 0.06
26845 H 34.36883848493726 189.01294533495783 69.72531403464723 H 0.0 **** 0.06
26846 C 145.98479958805774 118.32375555571804 128.17128569429562 C 0.0 **** -0.24
26847 H 146.6295568408486 119.003295740678 128.72900597702562 H 0.0 **** 0.06
26848 H 146.53655676354688 117.90974114637058 127.32757498462686 H 0.0 **** 0.06
26849 H 145.11370102271303 118.86681488975432 127.80600564961088 H 0.0 **** 0.06
26850 H 145.65985394733607 117.51388274358757 128.8258909814169 H 0.0 **** 0.06
26851 C 134.09743475865648 189.7756102107345 29.414993100348568 C 0.0 **** -0.24
26852 H 134.1666014015097 189.78067026665005 28.32727574269086 H 0.0 **** 0.06
26853 H 134.705238542283 188.96398346889526 29.81376528468175 H 0.0 **** 0.06
26854 H 133.05815798767432 189.632629856218 29.71110472868537 H 0.0 **** 0.06
26855 H 134.4583645870677 190.72700872008696 29.80590897464799 H 0.0 **** 0.06
26856 C 39.02458897156191 161.6554268831677 120.4625489751603 C 0.0 **** -0.24
26857 H 38.951801330716876 162.2003725848773 119.52091484135599 H 0.0 **** 0.06
26858 H 38.02916600182036 161.54285429265693 120.89324286380042 H 0.0 **** 0.06
26859 H 39.65972345719621 162.20784812976677 121.15428708413964 H 0.0 **** 0.06
26860 H 39.45552741783467 160.67144971559588 120.2800889732847 H 0.0 **** 0.06
26861 C 23.840293173852842 95.94216653779557 80.79517380538582 C 0.0 **** -0.24
26862 H 24.538335362095864 96.38756026204828 81.5041718454394 H 0.0 **** 0.06
26863 H 23.586868814959786 96.67307516358844 80.0273877974164 H 0.0 **** 0.06
26864 H 22.93537561889326 95.63585183395713 81.31970235321705 H 0.0 **** 0.06
26865 H 24.302377723375827 95.07084008636741 80.32958192739596 H 0.0 **** 0.06
26866 C 98.72732709767789 83.7523567262908 13.488503205989758 C 0.0 **** -0.24
26867 H 99.01738425833796 83.43196129675923 12.487203888909164 H 0.0 **** 0.06
26868 H 98.02628803615022 83.03251380750936 13.910510410381505 H 0.0 **** 0.06
26869 H 98.25347963022108 84.73221831528792 13.432045072603273 H 0.0 **** 0.06
26870 H 99.61270177097833 83.81270459596064 14.120982053945767 H 0.0 **** 0.06
26871 C 179.3769563411778 150.7747731993421 19.359861253262295 C 0.0 **** -0.24
26872 H 180.4313134975012 150.61549262000702 19.131831898811726 H 0.0 **** 0.06
26873 H 178.81611161430112 149.86911542562774 19.12754275367172 H 0.0 **** 0.06
26874 H 178.99700955339196 151.60177934782865 18.761201148794157 H 0.0 **** 0.06
26875 H 179.26633433235816 151.0105687778068 20.417991625737216 H 0.0 **** 0.06
26876 C 120.63233512579208 130.6931127731058 62.27623015969775 C 0.0 **** -0.24
26877 H 121.02466205752128 129.68766650841383 62.429214057263806 H 0.0 **** 0.06
26878 H 121.22687407052379 131.20263843073303 61.517264579589465 H 0.0 **** 0.06
26879 H 120.68388009184605 131.24946652295424 63.21179110905969 H 0.0 **** 0.06
26880 H 119.5957748062967 130.63268751919992 61.94589221719846 H 0.0 **** 0.06
26881 C 99.27935061335918 195.97170989464314 69.13245389923114 C 0.0 **** -0.24
26882 H 99.65053111646381 194.94841061684266 69.20462971404055 H 0.0 **** 0.06
26883 H 99.6248980315832 196.54509909911704 69.99354188414262 H 0.0 **** 0.06
26884 H 98.18933146591976 195.9609041594067 69.11657355081655 H 0.0 **** 0.06
26885 H 99.65222003727982 196.42977791550945 68.21641636685837 H 0.0 **** 0.06
26886 C 25.822287236593922 41.240336398622745 16.58475159736426 C 0.0 **** -0.24
26887 H 25.3473025494377 41.87192351987264 17.33555978874324 H 0.0 **** 0.06
26888 H 25.510316692802434 41.5610118353617 15.590204287312531 H 0.0 **** 0.06
26889 H 25.525262972973422 40.2034753047126 16.742112139821415 H 0.0 **** 0.06
26890 H 26.90534437164166 41.325383136137745 16.67015630937965 H 0.0 **** 0.06
26891 C 153.64136324326375 131.00590572404795 116.88616537052624 C 0.0 **** -0.24
26892 H 154.12959713244118 130.03757396667686 116.7787970889728 H 0.0 **** 0.06
26893 H 152.591736100813 130.91669403134244 116.6056964361293 H 0.0 **** 0.06
26894 H 154.13123180634938 131.7329093040151 116.23891020157319 H 0.0 **** 0.06
26895 H 153.7146131207616 131.33566529451784 117.92281177953461 H 0.0 **** 0.06
26896 C 49.30196401144585 38.848580226213244 152.93979872901576 C 0.0 **** -0.24
26897 H 49.064998781713655 38.95536483769999 153.99816548973445 H 0.0 **** 0.06
26898 H 50.331997248288815 39.15829376651186 152.76493671892655 H 0.0 **** 0.06
26899 H 48.629145432750136 39.47356453836326 152.35185615465184 H 0.0 **** 0.06
26900 H 49.18054013882278 37.80641402753771 152.64384510563926 H 0.0 **** 0.06
26901 C 187.79811580933776 82.42140494752368 157.76698894448492 C 0.0 **** -0.24
26902 H 187.0954927667442 82.73996992287155 158.5373608743766 H 0.0 **** 0.06
26903 H 188.6197617773352 83.13583600322596 157.70671561012733 H 0.0 **** 0.06
26904 H 187.28592918520678 82.3739897327388 156.80629215087419 H 0.0 **** 0.06
26905 H 188.1915574890145 81.43679264059321 158.01958334504235 H 0.0 **** 0.06
26906 C 138.6080870698952 156.39154616345579 196.2354611377875 C 0.0 **** -0.24
26907 H 138.87081709387735 156.4866097615386 195.181997078735 H 0.0 **** 0.06
26908 H 137.88869623537062 157.166708073511 196.50163316388355 H 0.0 **** 0.06
26909 H 139.50527153128724 156.5033131115889 196.84505271746326 H 0.0 **** 0.06
26910 H 138.1684087372995 155.41006257086212 196.41299875242566 H 0.0 **** 0.06
26911 C 153.72380889726952 142.04177832514856 85.01864488059917 C 0.0 **** -0.24
26912 H 153.1214904126079 142.0296303942029 84.11051298317275 H 0.0 **** 0.06
26913 H 154.3314312068611 142.94681264375848 85.0392290157738 H 0.0 **** 0.06
26914 H 154.37355888924048 141.16654638193734 85.03524861674276 H 0.0 **** 0.06
26915 H 153.0677931891562 142.02390262719953 85.88942817773429 H 0.0 **** 0.06
26916 C 188.0002215691731 103.90606483422891 152.13461061885346 C 0.0 **** -0.24
26917 H 187.53662385685507 102.922322891894 152.05343390173744 H 0.0 **** 0.06
26918 H 188.81256176997235 103.86525721578471 152.860676616148 H 0.0 **** 0.06
26919 H 187.25582394595526 104.63144154974043 152.46221780921252 H 0.0 **** 0.06
26920 H 188.39430153151602 104.20329666197654 151.16377290612468 H 0.0 **** 0.06
26921 C 170.5624479648572 76.19729430625354 82.07958402501941 C 0.0 **** -0.24
26922 H 171.03255917569496 75.59476432344944 81.30367313581303 H 0.0 **** 0.06
26923 H 169.5800787992142 76.52530686358001 81.7399823994028 H 0.0 **** 0.06
26924 H 171.18372305498139 77.0677862028964 82.29038204249494 H 0.0 **** 0.06
26925 H 170.45318515772598 75.6013637129067 82.98569055804555 H 0.0 **** 0.06
26926 C 191.6901170364655 181.75284084680658 174.4799684651602 C 0.0 **** -0.24
26927 H 192.31498507879863 182.6350100405704 174.34550249680706 H 0.0 **** 0.06
26928 H 191.57210195499806 181.2415421338466 173.52401461022075 H 0.0 **** 0.06
26929 H 190.71152329168564 182.0553089856824 174.85338378370798 H 0.0 **** 0.06
26930 H 192.16052181256728 181.07989824159455 175.196731518253 H 0.0 **** 0.06
26931 C 45.6896977186544 5.971669351740161 92.8093427137263 C 0.0 **** -0.24
26932 H 46.09742069087447 6.970683524279075 92.9619249255326 H 0.0 **** 0.06
26933 H 46.454513667958196 5.228721581991799 93.0389682583662 H 0.0 **** 0.06
26934 H 45.375400505638595 5.861011690700266 91.77150995900891 H 0.0 **** 0.06
26935 H 44.83129090075633 5.82490164985586 93.46602885812075 H 0.0 **** 0.06
26936 C 184.8257499379559 180.92300401446136 59.71452631810047 C 0.0 **** -0.24
26937 H 185.59916407028632 181.6004340748603 59.35191663048272 H 0.0 **** 0.06
26938 H 185.24462872318472 180.2707951154187 60.48100449941961 H 0.0 **** 0.06
26939 H 184.45505981702712 180.31847649794827 58.88560048365662 H 0.0 **** 0.06
26940 H 184.00500033222613 181.50169870601803 60.137370502131915 H 0.0 **** 0.06
26941 C 165.26663982289978 89.31451015556371 173.79544026161534 C 0.0 **** -0.24
26942 H 164.80457183790662 88.32776407282995 173.77076191274648 H 0.0 **** 0.06
26943 H 164.53125758008858 90.05139538887897 174.12048306053 H 0.0 **** 0.06
26944 H 165.62361689228135 89.57350148551711 172.79870431719982 H 0.0 **** 0.06
26945 H 166.1056076871383 89.30621567220348 174.4919995404189 H 0.0 **** 0.06
26946 C 175.59324014976775 152.4435547778489 17.05011998598883 C 0.0 **** -0.24
26947 H 176.15973029403875 153.20665900277336 16.516783758362294 H 0.0 **** 0.06
26948 H 174.86921691473623 151.98935617048738 16.37347113458509 H 0.0 **** 0.06
26949 H 175.06954036513554 152.90070607964952 17.889725194987435 H 0.0 **** 0.06
26950 H 176.2754635531188 151.67752955203312 17.420633540348476 H 0.0 **** 0.06
26951 C 196.28773137583698 149.270484890467 5.81106484646935 C 0.0 **** -0.24
26952 H 196.56322747529532 148.43957745081752 6.459782340796664 H 0.0 **** 0.06
26953 H 196.5644958340008 149.03582622220986 4.783411491247421 H 0.0 **** 0.06
26954 H 196.8098555463764 150.17137501754314 6.132590896518707 H 0.0 **** 0.06
26955 H 195.21123866499286 149.43494949888628 5.869190086414818 H 0.0 **** 0.06
26956 C 159.55798348659653 59.51654058236727 12.882522563327115 C 0.0 **** -0.24
26957 H 159.85425031959352 60.55965430240386 12.989720496364981 H 0.0 **** 0.06
26958 H 159.89437828334687 59.14039144455566 11.915816779620208 H 0.0 **** 0.06
26959 H 158.4719468111203 59.43866343598165 12.943687891919922 H 0.0 **** 0.06
26960 H 160.0096593673751 58.92594924933644 13.679942447115977 H 0.0 **** 0.06
26961 C 144.34675374239959 17.13331075571513 22.641279320981894 C 0.0 **** -0.24
26962 H 143.80593836336547 17.81879605098993 21.989700244671354 H 0.0 **** 0.06
26963 H 144.23551930506574 17.453372716647465 23.67779605830026 H 0.0 **** 0.06
26964 H 145.40344547262674 17.13322784207405 22.372328989767936 H 0.0 **** 0.06
26965 H 143.94286015415503 16.127306321296587 22.527328757656875 H 0.0 **** 0.06
26966 C 32.6831027191447 150.89825763336034 100.1797040190072 C 0.0 **** -0.24
26967 H 33.67932651685118 150.9042247664716 99.73714642275769 H 0.0 **** 0.06
26968 H 31.949433929994143 151.18554567806314 99.42647671554039 H 0.0 **** 0.06
26969 H 32.65048468748455 151.60698236287593 101.00823286047068 H 0.0 **** 0.06
26970 H 32.455537536951454 149.89801094969351 100.54813086408592 H 0.0 **** 0.06
26971 C 165.33893219175548 54.729376920583775 103.70639441579166 C 0.0 **** -0.24
26972 H 165.00816793258048 53.77215385943124 104.11050172510332 H 0.0 **** 0.06
26973 H 164.73378288081395 55.531116090875116 104.1323701748457 H 0.0 **** 0.06
26974 H 165.2255741422615 54.724773687905994 102.62324234812345 H 0.0 **** 0.06
26975 H 166.38616474970792 54.88902831357764 103.9625702895816 H 0.0 **** 0.06
26976 C 112.4595872638198 152.29728790286737 76.18192163277354 C 0.0 **** -0.24
26977 H 111.43115625782553 152.1544904718353 75.84959460920834 H 0.0 **** 0.06
26978 H 112.64791980947703 153.36008170248707 76.33528356773456 H 0.0 **** 0.06
26979 H 113.14220343867271 151.91228182542943 75.42398682518751 H 0.0 **** 0.06
26980 H 112.61555421177266 151.76073543455658 77.11769748075096 H 0.0 **** 0.06
26981 C 44.24701869132298 80.41466571093102 25.515179283278457 C 0.0 **** -0.24
26982 H 43.546570098719315 81.03189714998797 24.95382754667628 H 0.0 **** 0.06
26983 H 45.238625630047665 80.86797419428456 25.48016755206288 H 0.0 **** 0.06
26984 H 44.286726833070304 79.41841591262397 25.07615393348061 H 0.0 **** 0.06
26985 H 43.91740289329272 80.3418636349472 26.55167335914726 H 0.0 **** 0.06
26986 C 173.71569405390412 175.78299655276183 180.83417513062642 C 0.0 **** -0.24
26987 H 174.37797926595917 176.11040479400344 181.63637763043323 H 0.0 **** 0.06
26988 H 173.87107470303448 176.4103401272129 179.95646243538766 H 0.0 **** 0.06
26989 H 172.67942864823715 175.86651258526177 181.16262570012674 H 0.0 **** 0.06
26990 H 173.9347629304645 174.745404548061 180.58331395617762 H 0.0 **** 0.06
26991 C 38.55625562992421 2.000767538072779 32.611674222260916 C 0.0 **** -0.24
26992 H 38.426632171068576 2.699342222976668 31.78527731819787 H 0.0 **** 0.06
26993 H 37.93183382394432 1.1227525839440204 32.446320564871854 H 0.0 **** 0.06
26994 H 38.266580943075724 2.4829365821821625 33.54436078919338 H 0.0 **** 0.06
26995 H 39.60261442882967 1.6971876394318883 32.66921759524257 H 0.0 **** 0.06
26996 C 182.05209498189367 30.34762909877179 133.4231496946286 C 0.0 **** -0.24
26997 H 182.16965644298546 31.080005089681492 132.62459888954015 H 0.0 **** 0.06
26998 H 181.39725463094564 30.754148660122098 134.19489361399326 H 0.0 **** 0.06
26999 H 183.02632839042093 30.12258737360193 133.85501788133274 H 0.0 **** 0.06
27000 H 181.61416637921926 29.43601133143403 133.0178618393756 H 0.0 **** 0.06
27001 C 25.7979006298753 28.68377542304198 192.094105033151 C 0.0 **** -0.24
27002 H 25.661271997754795 27.74946883093655 192.63960985832335 H 0.0 **** 0.06
27003 H 25.24230191385351 29.478545164355154 192.59134420742544 H 0.0 **** 0.06
27004 H 25.432158748835207 28.56680030167763 191.0744769843384 H 0.0 **** 0.06
27005 H 26.85806184690921 28.938968889030875 192.07310023588133 H 0.0 **** 0.06
27006 C 21.427831334776272 69.02881804469094 151.3742364231852 C 0.0 **** -0.24
27007 H 21.926767809632167 69.98253419572158 151.5502495184762 H 0.0 **** 0.06
27008 H 20.42247082575038 69.20987059090561 150.99474611680034 H 0.0 **** 0.06
27009 H 21.36887127263354 68.47317804606868 152.31019880932394 H 0.0 **** 0.06
27010 H 21.99490851876881 68.45205111424592 150.64410832425617 H 0.0 **** 0.06
27011 C 78.7219020927046 18.601952629922593 26.203274090319667 C 0.0 **** -0.24
27012 H 79.05752705719516 19.16545542610875 27.07393083487517 H 0.0 **** 0.06
27013 H 78.7412886265499 17.535755579076124 26.432140261492123 H 0.0 **** 0.06
27014 H 79.38457917551568 18.8051414941619 25.36206540588995 H 0.0 **** 0.06
27015 H 77.7061761574358 18.90110124856581 25.947413621687758 H 0.0 **** 0.06
27016 C 69.85443448868313 192.20924401788506 164.09811408456616 C 0.0 **** -0.24
27017 H 70.51572088914259 192.24845481047572 163.23191923646385 H 0.0 **** 0.06
27018 H 69.14934697155178 193.03876887893261 164.05448198472556 H 0.0 **** 0.06
27019 H 70.44724141620364 192.2839321388314 165.0099300310103 H 0.0 **** 0.06
27020 H 69.30881517809277 191.2660123814204 164.0949023923335 H 0.0 **** 0.06
27021 C 36.88342205758748 118.15898968481886 94.01884837058029 C 0.0 **** -0.24
27022 H 36.094751041812756 118.81203318707406 93.64243378562995 H 0.0 **** 0.06
27023 H 37.6637033751515 118.06056396100482 93.26338616140518 H 0.0 **** 0.06
27024 H 36.465826531707876 117.17786092512466 94.24154768223858 H 0.0 **** 0.06
27025 H 37.30640557964226 118.58842569366851 94.92617262548404 H 0.0 **** 0.06
27026 C 77.92570933594948 66.56625872266216 61.436004295510145 C 0.0 **** -0.24
27027 H 77.40022912728546 66.30424458035986 60.517280268555226 H 0.0 **** 0.06
27028 H 78.96222500254544 66.81176754835224 61.203340619325644 H 0.0 **** 0.06
27029 H 77.89699052024116 65.72086202414613 62.12325266999159 H 0.0 **** 0.06
27030 H 77.44280709266855 67.42762614218674 61.89782599420565 H 0.0 **** 0.06
27031 C 156.7749632496905 160.83841679150729 154.340797254022 C 0.0 **** -0.24
27032 H 157.17778439784973 160.2006331442838 153.5532219558296 H 0.0 **** 0.06
27033 H 155.68591176937227 160.83795463418053 154.2854315290449 H 0.0 **** 0.06
27034 H 157.1457328637763 161.8540827898769 154.21084299850233 H 0.0 **** 0.06
27035 H 157.0890592405209 160.45717179735425 155.3124641960055 H 0.0 **** 0.06
27036 C 52.83613729960683 143.12517194580929 34.07403617161037 C 0.0 **** -0.24
27037 H 53.0979653339774 142.28349379356837 33.43363268241768 H 0.0 **** 0.06
27038 H 53.51726354073787 143.95431457676236 33.88097080417123 H 0.0 **** 0.06
27039 H 52.913974095254886 142.82520076779855 35.118067954384344 H 0.0 **** 0.06
27040 H 51.813123431308824 143.43818631762375 33.86128197697229 H 0.0 **** 0.06
27041 C 30.10132823742002 146.9870996433163 105.12849987926612 C 0.0 **** -0.24
27042 H 30.43583032877042 148.00960657282764 104.95143879772704 H 0.0 **** 0.06
27043 H 30.10618639434034 146.43514085637236 104.18884644955452 H 0.0 **** 0.06
27044 H 29.090936507164486 147.00136482735707 105.53750934660738 H 0.0 **** 0.06
27045 H 30.772941876698525 146.50326370493462 105.83837423985153 H 0.0 **** 0.06
27046 C 51.98845384115184 132.48325587203485 100.7313363484852 C 0.0 **** -0.24
27047 H 52.79576404486568 132.1934233550748 100.05834523287263 H 0.0 **** 0.06
27048 H 52.215133738113764 133.45391337684813 101.17289260116578 H 0.0 **** 0.06
27049 H 51.8886203263976 131.73857878323176 101.5207399054234 H 0.0 **** 0.06
27050 H 51.05522662404202 132.54735298441966 100.17134865693262 H 0.0 **** 0.06
27051 C 199.01339308434032 18.740614507968132 106.8902484549188 C 0.0 **** -0.24
27052 H 199.63109430343331 18.748481080499715 105.99235091200956 H 0.0 **** 0.06
27053 H 199.07204125656216 19.713434930853737 107.37943606834264 H 0.0 **** 0.06
27054 H 199.37222074446234 17.969350551105947 107.57139035627532 H 0.0 **** 0.06
27055 H 197.97896887797415 18.532384604909737 106.61791494735627 H 0.0 **** 0.06
27056 C 38.56010844031425 124.74497694168909 181.38764250746212 C 0.0 **** -0.24
27057 H 38.307713114269916 125.02869527148476 182.40878704465894 H 0.0 **** 0.06
27058 H 39.54988150819861 125.12774827124568 181.13820700125353 H 0.0 **** 0.06
27059 H 37.82489345692781 125.16476874795507 180.70124798123175 H 0.0 **** 0.06
27060 H 38.5578703965117 123.65760220692292 181.30143405756056 H 0.0 **** 0.06
27061 C 75.93258354506081 54.11641494288506 24.03069784707924 C 0.0 **** -0.24
27062 H 75.15346940353439 54.87832923004129 24.031363823039328 H 0.0 **** 0.06
27063 H 76.90089928519923 54.58711783646726 24.198382308745522 H 0.0 **** 0.06
27064 H 75.93909818665728 53.60322529401907 23.06910041285704 H 0.0 **** 0.06
27065 H 75.73609768661576 53.39594551100856 24.825767545031283 H 0.0 **** 0.06
27066 C 57.76104693522484 174.63813603671076 118.31309956870612 C 0.0 **** -0.24
27067 H 57.91972784471892 175.17094448664605 117.37509571767 H 0.0 **** 0.06
27068 H 57.21341439019653 173.71635543269983 118.11821040952404 H 0.0 **** 0.06
27069 H 57.1869804743331 175.26568802322075 118.9937675159135 H 0.0 **** 0.06
27070 H 58.725502335297506 174.4009874844976 118.76270054464922 H 0.0 **** 0.06
27071 C 187.6765912087145 66.08214884403668 25.01640094315613 C 0.0 **** -0.24
27072 H 187.4510668688426 65.4380009032732 25.86686840641667 H 0.0 **** 0.06
27073 H 186.88029090124357 66.81783119203538 24.897556445754162 H 0.0 **** 0.06
27074 H 187.75045775984233 65.47708674014316 24.112590524722066 H 0.0 **** 0.06
27075 H 188.6233990574267 66.59438301841246 25.18865000447022 H 0.0 **** 0.06
27076 C 153.3315778958929 55.129471163327224 189.72097803611655 C 0.0 **** -0.24
27077 H 153.92257169073594 56.01595267452329 189.94945895508948 H 0.0 **** 0.06
27078 H 153.0376669283399 54.640187943800356 190.64949995451946 H 0.0 **** 0.06
27079 H 153.92594664656554 54.442096694956405 189.1199649028016 H 0.0 **** 0.06
27080 H 152.44035604234574 55.421633871079294 189.16502007390233 H 0.0 **** 0.06
27081 C 3.8125659565822616 34.294985747354545 59.55656777362486 C 0.0 **** -0.24
27082 H 4.68760287111715 33.65308720335595 59.463120975092465 H 0.0 **** 0.06
27083 H 2.970841870487334 33.84073805266813 59.03277077009699 H 0.0 **** 0.06
27084 H 4.029626329025518 35.269763858168545 59.11944980587998 H 0.0 **** 0.06
27085 H 3.561513047645235 34.41745349820383 60.61035607198306 H 0.0 **** 0.06
27086 C 139.01336999015325 28.36600187257369 105.32631663670196 C 0.0 **** -0.24
27087 H 139.4830390094725 29.34583473404163 105.23637069597532 H 0.0 **** 0.06
27088 H 138.3339039467469 28.36578782031262 106.17861384542371 H 0.0 **** 0.06
27089 H 139.78115438299358 27.606540899411016 105.47388640858671 H 0.0 **** 0.06
27090 H 138.45543329684676 28.14671687699797 104.41528401023106 H 0.0 **** 0.06
27091 C 71.30805400597615 80.59285398759442 182.42853382688853 C 0.0 **** -0.24
27092 H 72.01590528103804 81.02249980351979 181.7211077287558 H 0.0 **** 0.06
27093 H 70.60624307387656 81.36167775886918 182.75249233799923 H 0.0 **** 0.06
27094 H 71.84735974204625 80.20520551216646 183.292710695947 H 0.0 **** 0.06
27095 H 70.76163611164424 79.78111037168458 181.94784007910462 H 0.0 **** 0.06
27096 C 99.03863980840373 21.560851811431007 136.76596128018073 C 0.0 **** -0.24
27097 H 98.14671050581208 22.15233404764828 136.5565822217649 H 0.0 **** 0.06
27098 H 99.45286273741502 21.857513096208635 137.72963868107743 H 0.0 **** 0.06
27099 H 99.77844248344678 21.73109121119859 135.98375527673662 H 0.0 **** 0.06
27100 H 98.77497995946575 20.503799306351596 136.79298270106003 H 0.0 **** 0.06
27101 C 74.15276641772363 26.14291001740014 36.54421569739188 C 0.0 **** -0.24
27102 H 74.68104497618253 26.766517662414884 37.26531690307105 H 0.0 **** 0.06
27103 H 73.19590277218413 25.83223109903713 36.96359887954705 H 0.0 **** 0.06
27104 H 74.75393851094168 25.262213393195623 36.31680139084011 H 0.0 **** 0.06
27105 H 73.98209680701387 26.71147124923641 35.6298439459558 H 0.0 **** 0.06
27106 C 45.64570554312661 75.75101231856733 111.97442053749148 C 0.0 **** -0.24
27107 H 46.04038584604115 75.42135183157873 112.93592515123385 H 0.0 **** 0.06
27108 H 45.49609627082907 74.88601699610429 111.32749019961332 H 0.0 **** 0.06
27109 H 46.353251706039714 76.43679363123745 111.50751785120815 H 0.0 **** 0.06
27110 H 44.693808331710414 76.26031145804306 112.12788971413178 H 0.0 **** 0.06
27111 C 116.77332708756046 31.139402547756617 79.23848973436361 C 0.0 **** -0.24
27112 H 117.55835550192359 31.51940144002384 79.8913012579967 H 0.0 **** 0.06
27113 H 116.34440989738499 31.96329697058286 78.66842421299168 H 0.0 **** 0.06
27114 H 115.99536412149217 30.6699461380079 79.84110071935527 H 0.0 **** 0.06
27115 H 117.19494720945136 30.40357231187346 78.5532036373412 H 0.0 **** 0.06
27116 C 194.31676832284634 197.5034480187045 104.9216214720347 C 0.0 **** -0.24
27117 H 194.29676804421916 197.01040357538687 103.94926255323821 H 0.0 **** 0.06
27118 H 195.0260450088346 196.99246883946736 105.57302729952715 H 0.0 **** 0.06
27119 H 193.32243627649902 197.46750754403743 105.36668522647778 H 0.0 **** 0.06
27120 H 194.62139381166784 198.5424893643078 104.79652920636914 H 0.0 **** 0.06
27121 C 162.40424410867152 120.34699709458607 108.20295088009397 C 0.0 **** -0.24
27122 H 163.24579069142743 119.70363937953374 107.94513138468662 H 0.0 **** 0.06
27123 H 161.81329957700515 119.87465915819655 108.98899487483612 H 0.0 **** 0.06
27124 H 161.78149627726572 120.50092760504302 107.32246227144557 H 0.0 **** 0.06
27125 H 162.7773090027447 121.30876456780248 108.55699130889712 H 0.0 **** 0.06
27126 C 4.097280502572289 69.8340199171316 96.72544384630456 C 0.0 **** -0.24
27127 H 4.9399627093999925 70.52283724268726 96.78448681303578 H 0.0 **** 0.06
27128 H 4.468111637508855 68.80883583539642 96.71598016944208 H 0.0 **** 0.06
27129 H 3.534714195279548 70.02511857926294 95.81080448285061 H 0.0 **** 0.06
27130 H 3.447554740794999 69.97782561416722 97.5881865760368 H 0.0 **** 0.06
27131 C 89.98543550835211 129.07313934503887 34.74073846018513 C 0.0 **** -0.24
27132 H 90.85312522308382 129.73094627706294 34.798973334475875 H 0.0 **** 0.06
27133 H 89.94162892475734 128.45071699315486 35.6344935060296 H 0.0 **** 0.06
27134 H 90.06920105309104 128.43879744749447 33.85890324320826 H 0.0 **** 0.06
27135 H 89.07859277220072 129.67462221585248 34.67156976619009 H 0.0 **** 0.06
27136 C 139.61584925523914 58.71050799490456 88.6378128359313 C 0.0 **** -0.24
27137 H 139.16730520184922 57.87274224187627 89.17105615956189 H 0.0 **** 0.06
27138 H 139.10022149904916 58.854151683078214 87.68786272792295 H 0.0 **** 0.06
27139 H 140.66898433368962 58.501277321552834 88.45189699531528 H 0.0 **** 0.06
27140 H 139.526232801491 59.6142024680471 89.24111117415259 H 0.0 **** 0.06
27141 C 158.05313293710174 198.66899657673662 81.7487646830132 C 0.0 **** -0.24
27142 H 158.3134982739207 199.02746064758668 80.75328235485557 H 0.0 **** 0.06
27143 H 157.80609095268335 197.60834682349335 81.69939821040938 H 0.0 **** 0.06
27144 H 157.19270421703607 199.2258769959296 82.12178121214095 H 0.0 **** 0.06
27145 H 158.89956419238183 198.81548704549647 82.42022158348729 H 0.0 **** 0.06
27146 C 131.15671738317837 58.251976475749544 190.8293537321623 C 0.0 **** -0.24
27147 H 131.2991416139511 57.96579940874247 191.87192398373344 H 0.0 **** 0.06
27148 H 131.767123198761 57.613064831413354 190.19128451196036 H 0.0 **** 0.06
27149 H 131.45455185588204 59.29173052090772 190.69496314681436 H 0.0 **** 0.06
27150 H 130.10620760920153 58.136496881915974 190.56212655323458 H 0.0 **** 0.06
27151 C 112.68714443766373 73.5941457555687 104.26525208867525 C 0.0 **** -0.24
27152 H 113.17115491117539 73.13027056938442 105.125347071481 H 0.0 **** 0.06
27153 H 113.10231688316333 74.59002292184128 104.10866280238895 H 0.0 **** 0.06
27154 H 111.61548340244514 73.67043293696405 104.44967165892876 H 0.0 **** 0.06
27155 H 112.86049656477184 72.98347887920671 103.378584895762 H 0.0 **** 0.06
27156 C 59.23751254336639 103.19628827893592 72.93608730742079 C 0.0 **** -0.24
27157 H 59.03496737923831 102.75341482186292 73.91142788761624 H 0.0 **** 0.06
27158 H 60.3135833272172 103.21477734828164 72.76136032075544 H 0.0 **** 0.06
27159 H 58.848922084930734 104.21454852784464 72.91193755100915 H 0.0 **** 0.06
27160 H 58.753063529729616 102.60368617123981 72.15999931036669 H 0.0 **** 0.06
27161 C 148.14543792354405 120.14835711428782 93.30212864629095 C 0.0 **** -0.24
27162 H 147.24063742888202 120.48297137989152 93.81070023988923 H 0.0 **** 0.06
27163 H 148.0065145674321 120.22969086769945 92.22388339904222 H 0.0 **** 0.06
27164 H 148.34714487466204 119.11030613824022 93.56604559287541 H 0.0 **** 0.06
27165 H 148.98567485658927 120.77141950005364 93.60883998598445 H 0.0 **** 0.06
27166 C 110.20703456688011 133.15732785298076 143.01344750451096 C 0.0 **** -0.24
27167 H 110.57189101708605 133.49794634929458 143.98216701050703 H 0.0 **** 0.06
27168 H 110.49319457522984 132.116868649612 142.86306214776582 H 0.0 **** 0.06
27169 H 110.64154954401312 133.772334291094 142.22503485273234 H 0.0 **** 0.06
27170 H 109.12060202816144 133.2435963344226 142.98458955501633 H 0.0 **** 0.06
27171 C 60.00489377946633 68.74331316164825 7.398409788265411 C 0.0 **** -0.24
27172 H 59.848937925434214 67.67211345403172 7.523899342204743 H 0.0 **** 0.06
27173 H 59.6086610499071 69.05729402912289 6.432925809387456 H 0.0 **** 0.06
27174 H 61.07252337541071 68.96196118684145 7.441546773642074 H 0.0 **** 0.06
27175 H 59.49151068979681 69.28104151809359 8.195502442584 H 0.0 **** 0.06
27176 C 101.38457500124764 76.54051954272391 81.13251306543421 C 0.0 **** -0.24
27177 H 102.266951576699 75.96634540755127 80.85161218652871 H 0.0 **** 0.06
27178 H 100.50820567074686 76.12783526179096 80.63036944598241 H 0.0 **** 0.06
27179 H 101.51768632561084 77.5812092555008 80.83503364741898 H 0.0 **** 0.06
27180 H 101.24422468704131 76.48587091578196 82.21213429659153 H 0.0 **** 0.06
27181 C 184.46190431252325 16.134143658223934 85.96071684547809 C 0.0 **** -0.24
27182 H 184.42108228060027 17.070368852183734 85.40496545559427 H 0.0 **** 0.06
27183 H 183.83451470665625 16.211693708536032 86.84914859448861 H 0.0 **** 0.06
27184 H 185.4912820290868 15.932364946829182 86.25858018866813 H 0.0 **** 0.06
27185 H 184.10033165645075 15.321609978215477 85.33091218948982 H 0.0 **** 0.06
27186 C 118.09462083145152 150.67786147066934 128.53668669031785 C 0.0 **** -0.24
27187 H 118.20738569391324 151.49623961967646 127.82617352664727 H 0.0 **** 0.06
27188 H 119.079243571023 150.32634648704152 128.84426749202402 H 0.0 **** 0.06
27189 H 117.54801774621217 149.86071022401126 128.06516298391665 H 0.0 **** 0.06
27190 H 117.54363319056907 151.02714665932402 129.40915452955335 H 0.0 **** 0.06
27191 C 81.57410058882493 38.433286290820305 33.75249146934448 C 0.0 **** -0.24
27192 H 82.05114686132231 38.68199505842311 32.80489320565016 H 0.0 **** 0.06
27193 H 80.66776621489049 37.85729072208281 33.562652551833764 H 0.0 **** 0.06
27194 H 81.31699317422513 39.349912923167196 34.28263018744266 H 0.0 **** 0.06
27195 H 82.25931348423725 37.84216843111854 34.360453356322154 H 0.0 **** 0.06
27196 C 137.7269729948781 53.13140047747696 118.87117215954876 C 0.0 **** -0.24
27197 H 138.38638936167396 53.18093939607172 118.00381775378875 H 0.0 **** 0.06
27198 H 138.20525800988332 52.54842888109502 119.65774652188125 H 0.0 **** 0.06
27199 H 136.7878670013261 52.6568787154831 118.58569760188055 H 0.0 **** 0.06
27200 H 137.5286798016039 54.139847216790585 119.23448286629886 H 0.0 **** 0.06
27201 C 20.691947534970893 175.19958114926214 97.99970093194185 C 0.0 **** -0.24
27202 H 19.964181916206996 175.0280070702792 97.20677835343065 H 0.0 **** 0.06
27203 H 20.95469579035418 176.25722253274495 98.02720996647864 H 0.0 **** 0.06
27204 H 21.586208826885553 174.6081540820128 97.80600419840519 H 0.0 **** 0.06
27205 H 20.260950188251 174.90631795810148 98.95656855814266 H 0.0 **** 0.06
27206 C 177.8726687940645 61.209751074983714 41.18552695606019 C 0.0 **** -0.24
27207 H 177.01113174217605 61.878183934310854 41.18729434230107 H 0.0 **** 0.06
27208 H 178.77936845966212 61.78676132668052 40.998351607995914 H 0.0 **** 0.06
27209 H 177.7501824733524 60.46137650489176 40.403065283281705 H 0.0 **** 0.06
27210 H 177.9500807895752 60.715092434394464 42.15296680562642 H 0.0 **** 0.06
27211 C 56.16211451219664 11.697152457216873 12.583648825666842 C 0.0 **** -0.24
27212 H 55.45018439486324 12.29574493151847 13.15159444965633 H 0.0 **** 0.06
27213 H 56.207890771978896 12.064599063130856 11.558197110414284 H 0.0 **** 0.06
27214 H 55.84244466259122 10.655620610329123 12.583141679027904 H 0.0 **** 0.06
27215 H 57.14812460979425 11.77487128996006 13.041562080897023 H 0.0 **** 0.06
27216 C 92.14037387136793 113.65944747172446 110.48069944357255 C 0.0 **** -0.24
27217 H 92.67026383361687 114.01225609869144 111.36549172611669 H 0.0 **** 0.06
27218 H 91.66292742308539 112.70350364620572 110.70058354418396 H 0.0 **** 0.06
27219 H 92.84805141884328 113.5314028426186 109.66143651238798 H 0.0 **** 0.06
27220 H 91.38192366806655 114.38818526808853 110.19640175699061 H 0.0 **** 0.06
27221 C 168.77220057166952 91.996601150886 152.49115479918882 C 0.0 **** -0.24
27222 H 169.7612217477757 91.5753624766026 152.67412145191247 H 0.0 **** 0.06
27223 H 168.11769427955426 91.76236903023846 153.33050127226534 H 0.0 **** 0.06
27224 H 168.35926002053725 91.56946193869717 151.57675231748954 H 0.0 **** 0.06
27225 H 168.85323843516588 93.0777614677601 152.38297025192162 H 0.0 **** 0.06
27226 C 2.7743390810141477 29.25606676464615 92.93092761708505 C 0.0 **** -0.24
27227 H 1.7350801447119863 29.274951111027008 92.60222724464845 H 0.0 **** 0.06
27228 H 3.3804366169292734 29.856027226716336 92.25230998002266 H 0.0 **** 0.06
27229 H 3.136417280156195 28.228140078184126 92.93004480605822 H 0.0 **** 0.06
27230 H 2.843900909109891 29.6649004222524 93.93833857988878 H 0.0 **** 0.06
27231 C 47.38508973677821 141.6276921981038 43.71684119494256 C 0.0 **** -0.24
27232 H 46.878095353730714 140.89081375811398 44.33967226298418 H 0.0 **** 0.06
27233 H 46.65957656613699 142.10389134986121 43.05582929489805 H 0.0 **** 0.06
27234 H 48.15160739316042 141.13463975710695 43.12085914285012 H 0.0 **** 0.06
27235 H 47.84820703504059 142.38263384583323 44.35307400043445 H 0.0 **** 0.06
27236 C 110.2067101374935 164.7728707546513 137.78864930689264 C 0.0 **** -0.24
27237 H 109.79858525935182 163.84505422560252 138.18773479125434 H 0.0 **** 0.06
27238 H 110.95659900323568 164.54491590496093 137.03163217229041 H 0.0 **** 0.06
27239 H 110.6666447453344 165.34413214609876 138.5955565385077 H 0.0 **** 0.06
27240 H 109.40471610110947 165.3600555949548 137.34099964805188 H 0.0 **** 0.06
27241 C 113.19541277154579 135.57478535600947 30.422741249108697 C 0.0 **** -0.24
27242 H 112.53499919820041 136.36964548884586 30.078260579739066 H 0.0 **** 0.06
27243 H 112.8239971552909 134.61292087031327 30.068047223759777 H 0.0 **** 0.06
27244 H 113.22463643687553 135.5730508739029 31.51254749823738 H 0.0 **** 0.06
27245 H 114.19993284560297 135.742444457978 30.033190807767625 H 0.0 **** 0.06
27246 C 190.96149891074353 183.2808781532272 179.13415980510956 C 0.0 **** -0.24
27247 H 191.23285240408842 182.29178354269982 179.50120174310692 H 0.0 **** 0.06
27248 H 190.66739681853943 183.21188942551836 178.08704701822109 H 0.0 **** 0.06
27249 H 191.81722103878502 183.9503374010356 179.22870431814675 H 0.0 **** 0.06
27250 H 190.13016293798196 183.6709463355355 179.7214842456722 H 0.0 **** 0.06
27251 C 62.972297615476066 62.55282659719245 101.7818599730108 C 0.0 **** -0.24
27252 H 62.90451562158867 62.750612961759245 102.85184214476203 H 0.0 **** 0.06
27253 H 64.01702252708714 62.58571322793442 101.47124118629844 H 0.0 **** 0.06
27254 H 62.407107986467736 63.30891635345138 101.2368869037928 H 0.0 **** 0.06
27255 H 62.559774888132154 61.56745446244264 101.56815828910402 H 0.0 **** 0.06
27256 C 45.821601515270515 165.05998901343355 94.99849835134862 C 0.0 **** -0.24
27257 H 46.85609849430642 165.36903692072622 95.14771319852261 H 0.0 **** 0.06
27258 H 45.402120693178915 164.72518714982039 95.94759226145877 H 0.0 **** 0.06
27259 H 45.78818208104826 164.2422454527446 94.27825304389032 H 0.0 **** 0.06
27260 H 45.241612404214436 165.90097141731633 94.62013492612007 H 0.0 **** 0.06
27261 C 118.51081338432576 161.04534833226583 27.18210940913974 C 0.0 **** -0.24
27262 H 117.56656220071415 160.66670658130866 26.78923941094166 H 0.0 **** 0.06
27263 H 118.47835717829588 161.03889622205173 28.272272552256425 H 0.0 **** 0.06
27264 H 118.66827199820884 162.06418477334307 26.828491298050153 H 0.0 **** 0.06
27265 H 119.32776698500072 160.4111697151971 26.839170699036742 H 0.0 **** 0.06
27266 C 147.65209329836944 1.1851208437515126 4.190797593937766 C 0.0 **** -0.24
27267 H 146.76524587102375 0.7208489949217096 4.620668441926995 H 0.0 **** 0.06
27268 H 147.52104906103273 1.2917021972727838 3.1136738690120467 H 0.0 **** 0.06
27269 H 148.52340051493957 0.5615871394970284 4.391536578447074 H 0.0 **** 0.06
27270 H 147.79902838693187 2.16868989537042 4.637926994130915 H 0.0 **** 0.06
27271 C 47.45590807513926 195.7607215298915 117.96373848977791 C 0.0 **** -0.24
27272 H 46.868130460559826 196.6398145085389 117.69860323479486 H 0.0 **** 0.06
27273 H 47.50377420877152 195.66914306288072 119.04931249581682 H 0.0 **** 0.06
27274 H 48.46367914347405 195.86265701520176 117.56215500549476 H 0.0 **** 0.06
27275 H 46.98596289523505 194.87048969583043 117.54468537795199 H 0.0 **** 0.06
27276 C 194.02898939786888 85.21586865392959 163.718233434252 C 0.0 **** -0.24
27277 H 194.5453990316424 84.31320440514946 163.3908742458937 H 0.0 **** 0.06
27278 H 194.76123029299842 85.96341628336666 164.02155252675294 H 0.0 **** 0.06
27279 H 193.3807102913872 84.97765495935147 164.56215650080608 H 0.0 **** 0.06
27280 H 193.4281712410127 85.60732204699082 162.89782350729797 H 0.0 **** 0.06
27281 C 65.88215078754317 113.88988204978921 170.77514402865233 C 0.0 **** -0.24
27282 H 64.86561066017426 114.15004434666969 171.07100453837631 H 0.0 **** 0.06
27283 H 66.52075858149121 113.86100235826854 171.65838224428853 H 0.0 **** 0.06
27284 H 66.26009241981801 114.63633697417279 170.07709830414097 H 0.0 **** 0.06
27285 H 65.8810359516258 112.91088655429596 170.29518436967186 H 0.0 **** 0.06
27286 C 25.686910419606647 154.71496501874964 166.19121134580172 C 0.0 **** -0.24
27287 H 25.563442301830094 154.35217062990688 165.1715729277368 H 0.0 **** 0.06
27288 H 26.28504680097413 154.00235892303576 166.75972882026213 H 0.0 **** 0.06
27289 H 24.709283561705035 154.8242652455594 166.65926138661146 H 0.0 **** 0.06
27290 H 26.191196183288014 155.6813895958647 166.17391689720168 H 0.0 **** 0.06
27291 C 80.32737452822911 195.37190462047965 106.57342441135529 C 0.0 **** -0.24
27292 H 80.38182756410512 195.24073839383408 105.49319575604378 H 0.0 **** 0.06
27293 H 80.5699795242582 196.40421059942946 106.82730998170913 H 0.0 **** 0.06
27294 H 81.03867312693342 194.70128771149078 107.05623903613738 H 0.0 **** 0.06
27295 H 79.31860131945976 195.14003789240957 106.91709597861075 H 0.0 **** 0.06
27296 C 87.22399822992239 17.929581732132874 73.90733362076749 C 0.0 **** -0.24
27297 H 86.72248869598508 18.27052644343729 73.0011081560302 H 0.0 **** 0.06
27298 H 86.6961792663052 18.31351247067323 74.78029181615386 H 0.0 **** 0.06
27299 H 88.25108579379193 18.295410167914838 73.91336591804033 H 0.0 **** 0.06
27300 H 87.22518612230539 16.83996625966313 73.9319788717475 H 0.0 **** 0.06
27301 C 90.52140311161051 50.468625307450594 90.98953230078982 C 0.0 **** -0.24
27302 H 91.56227909336474 50.62776623115725 91.27103192233972 H 0.0 **** 0.06
27303 H 89.89789478828916 51.23067623838418 91.45965301244675 H 0.0 **** 0.06
27304 H 90.20161213321174 49.48102529402843 91.32227789593856 H 0.0 **** 0.06
27305 H 90.42371821674362 50.537393582310045 89.90581311144786 H 0.0 **** 0.06
27306 C 33.82958260712854 52.952529758059285 94.46119982349484 C 0.0 **** -0.24
27307 H 33.83993804223999 53.91829577262888 94.96536986281274 H 0.0 **** 0.06
27308 H 33.68804240865131 53.1026906201906 93.39102891913825 H 0.0 **** 0.06
27309 H 33.01411383967229 52.34591222632989 94.8540108772446 H 0.0 **** 0.06
27310 H 34.77839250506159 52.44262970642873 94.63435421431558 H 0.0 **** 0.06
27311 C 100.44221226909917 22.65525091409073 18.220796247783596 C 0.0 **** -0.24
27312 H 100.05527057548528 22.49889556060114 19.22765860583678 H 0.0 **** 0.06
27313 H 101.08229092683317 23.537390120633674 18.211079686922687 H 0.0 **** 0.06
27314 H 99.61102155529386 22.801038662252978 17.53168697607299 H 0.0 **** 0.06
27315 H 101.0204251739357 21.783456418322274 17.914740902284393 H 0.0 **** 0.06
27316 C 70.94379992210318 62.63125697994542 14.137923042346245 C 0.0 **** -0.24
27317 H 71.33679023604186 61.65278461022422 14.412255132482017 H 0.0 **** 0.06
27318 H 70.27908736673737 62.52788265305742 13.280819997706317 H 0.0 **** 0.06
27319 H 71.76844715684221 63.29500085383967 13.881281940767224 H 0.0 **** 0.06
27320 H 70.38948974087538 63.04853524794311 14.979659219099517 H 0.0 **** 0.06
27321 C 174.27125943378394 21.597161262578425 63.80137126541484 C 0.0 **** -0.24
27322 H 174.40354106530756 21.16585987895155 64.79336287687177 H 0.0 **** 0.06
27323 H 173.5498992873188 22.412500750673075 63.852769063318064 H 0.0 **** 0.06
27324 H 173.90644582297156 20.830053094048537 63.117723119710874 H 0.0 **** 0.06
27325 H 175.22689200313806 21.979118251170064 63.44248558761366 H 0.0 **** 0.06
27326 C 162.3902793721138 36.89498157302535 71.62472913351719 C 0.0 **** -0.24
27327 H 162.41430999886043 36.32943888926761 70.69315268073908 H 0.0 **** 0.06
27328 H 163.20638695971942 36.56760117761493 72.26995017713668 H 0.0 **** 0.06
27329 H 161.43785237912866 36.72430024443034 72.12845666925435 H 0.0 **** 0.06
27330 H 162.5016006068554 37.95715637472068 71.40749895819779 H 0.0 **** 0.06
27331 C 73.13649588363342 54.999451345563244 64.59764948520363 C 0.0 **** -0.24
27332 H 72.41741422528065 54.369801325014734 64.07252366375134 H 0.0 **** 0.06
27333 H 72.92790223453801 54.97455125962243 65.66761928678639 H 0.0 **** 0.06
27334 H 73.05534067570017 56.02404811929867 64.23497337371592 H 0.0 **** 0.06
27335 H 74.1447348924703 54.627337137311585 64.41430878925159 H 0.0 **** 0.06
27336 C 108.88275233716016 106.23484506413547 12.292534447128894 C 0.0 **** -0.24
27337 H 109.18930045378721 107.21961375393192 11.939923384412204 H 0.0 **** 0.06
27338 H 109.19820944181225 105.47834682189645 11.574339559764255 H 0.0 **** 0.06
27339 H 107.79795183074256 106.20800210050544 12.396322706863486 H 0.0 **** 0.06
27340 H 109.3448508263277 106.03528218406024 13.259746596511832 H 0.0 **** 0.06
27341 C 130.91655381157983 121.0471703789012 85.42187276066574 C 0.0 **** -0.24
27342 H 129.87081525509228 120.80521154960522 85.23145352691412 H 0.0 **** 0.06
27343 H 131.55128762907646 120.46742844479516 84.7512924408826 H 0.0 **** 0.06
27344 H 131.163144971017 120.80587531357247 86.45558217955698 H 0.0 **** 0.06
27345 H 131.0801301767949 122.1106961439443 85.24902776103238 H 0.0 **** 0.06
27346 C 191.03957468495784 51.352368735980434 120.7066727834131 C 0.0 **** -0.24
27347 H 191.8694707302539 51.08798849195705 120.04996861756828 H 0.0 **** 0.06
27348 H 191.27421163733194 52.2774056092384 121.23427773781998 H 0.0 **** 0.06
27349 H 190.8804314963993 50.55230163898611 121.42969267948183 H 0.0 **** 0.06
27350 H 190.13713274665145 51.49034937514145 120.11223645774606 H 0.0 **** 0.06
27351 C 117.17275449753669 24.80676275121192 4.520151443067277 C 0.0 **** -0.24
27352 H 116.68325248380879 25.660081421602882 4.9884352085438195 H 0.0 **** 0.06
27353 H 118.20127959517868 24.73797870235279 4.875188866794872 H 0.0 **** 0.06
27354 H 117.1689180748611 24.935552907959277 3.4372599043364573 H 0.0 **** 0.06
27355 H 116.63674840416607 23.89380651062072 4.779282779415979 H 0.0 **** 0.06
27356 C 54.092585214543135 68.25067794409739 122.65514010319328 C 0.0 **** -0.24
27357 H 54.88240130877696 68.99067127889822 122.52383855829433 H 0.0 **** 0.06
27358 H 54.416366135632245 67.49835758168979 123.37486413735829 H 0.0 **** 0.06
27359 H 53.87982077626634 67.77252602354284 121.69948917487972 H 0.0 **** 0.06
27360 H 53.19188031226676 68.74316526797276 123.02334334182436 H 0.0 **** 0.06
27361 C 17.230220387271117 196.19346279419068 66.72816255466181 C 0.0 **** -0.24
27362 H 16.652103315064835 195.7410059776088 65.9220452080288 H 0.0 **** 0.06
27363 H 17.631376377374835 195.41003971994175 67.37058828986295 H 0.0 **** 0.06
27364 H 16.58502056699001 196.84930426794784 67.31279905530872 H 0.0 **** 0.06
27365 H 18.05028082608544 196.77281745020895 66.3051877102343 H 0.0 **** 0.06
27366 C 109.49720279097511 75.98948760954649 165.36807691408714 C 0.0 **** -0.24
27367 H 110.08251461501126 76.6938814942875 164.7772926901128 H 0.0 **** 0.06
27368 H 108.44435078470087 76.0747797357492 165.09889929399029 H 0.0 **** 0.06
27369 H 109.62102446706518 76.21448712294251 166.42803263167423 H 0.0 **** 0.06
27370 H 109.84209640780037 74.97481346833109 165.16886982424776 H 0.0 **** 0.06
27371 C 169.03902538327452 102.10978381976722 2.738997895021811 C 0.0 **** -0.24
27372 H 168.0901801338338 101.68775800717881 3.0707893913379394 H 0.0 **** 0.06
27373 H 169.8376441984997 101.77181652218042 3.400730329625503 H 0.0 **** 0.06
27374 H 168.98160641755726 103.19838830563216 2.766457681347333 H 0.0 **** 0.06
27375 H 169.24683326904236 101.78215411383425 1.720661836322165 H 0.0 **** 0.06
27376 C 119.63823139104602 191.14126909158648 14.668768365432754 C 0.0 **** -0.24
27377 H 118.9667414223286 191.65901704736447 13.983009674025084 H 0.0 **** 0.06
27378 H 119.06722569660553 190.43435537359534 15.270752730519689 H 0.0 **** 0.06
27379 H 120.12139792640608 191.8678459369351 15.320654728776248 H 0.0 **** 0.06
27380 H 120.39608980864841 190.6046959606237 14.097633894444158 H 0.0 **** 0.06
27381 C 9.07365299543801 14.7672491534817 34.12641980817699 C 0.0 **** -0.24
27382 H 9.031345268370302 15.327947577647535 33.19260932565406 H 0.0 **** 0.06
27383 H 9.828948009357362 15.204408555546536 34.779392072684274 H 0.0 **** 0.06
27384 H 9.332171137378168 13.72949229217712 33.91461621783134 H 0.0 **** 0.06
27385 H 8.10095190409504 14.80572010016408 34.616709777011394 H 0.0 **** 0.06
27386 C 8.195429840480273 151.00392544287513 7.052425175601826 C 0.0 **** -0.24
27387 H 7.283685095861436 150.53026786001857 7.416993011063568 H 0.0 **** 0.06
27388 H 8.873992051844333 151.17791223610635 7.886931366210035 H 0.0 **** 0.06
27389 H 7.946002044414989 151.95449474773366 6.581007683352539 H 0.0 **** 0.06
27390 H 8.675495857448517 150.35129668448474 6.322889010357301 H 0.0 **** 0.06
27391 C 56.70334307639985 113.27811208295776 67.83967792403027 C 0.0 **** -0.24
27392 H 55.904430893158235 113.9871945611506 67.6249291757357 H 0.0 **** 0.06
27393 H 57.66622367180389 113.78678659341935 67.78093347335292 H 0.0 **** 0.06
27394 H 56.675073585015866 112.4675162528471 67.1106217216793 H 0.0 **** 0.06
27395 H 56.567644155621394 112.87095092441385 68.84222732535301 H 0.0 **** 0.06
27396 C 84.84154753072599 153.59104221614268 57.247345767419745 C 0.0 **** -0.24
27397 H 84.81623641699767 152.84980617786644 56.448033447852424 H 0.0 **** 0.06
27398 H 85.8660359417664 153.70874353869317 57.60196330791399 H 0.0 **** 0.06
27399 H 84.20821332886999 153.25890672723543 58.0699863264922 H 0.0 **** 0.06
27400 H 84.4751863495855 154.54539667089824 56.86937918557311 H 0.0 **** 0.06
27401 C 158.99581575804723 135.59668963253108 13.606020212665385 C 0.0 **** -0.24
27402 H 159.54121204977054 136.0075830849785 14.456084419230592 H 0.0 **** 0.06
27403 H 157.93504549589863 135.8255927989739 13.710846186700309 H 0.0 **** 0.06
27404 H 159.1338443118962 134.51565022424498 13.575334548138073 H 0.0 **** 0.06
27405 H 159.37491973731 136.03815013940687 12.684434908791673 H 0.0 **** 0.06
27406 C 55.77837298617837 182.53956315584682 142.5446828258855 C 0.0 **** -0.24
27407 H 55.311133486709394 181.64815641862805 142.96243508129956 H 0.0 **** 0.06
27408 H 56.80346820762446 182.30939679448352 142.2524775235502 H 0.0 **** 0.06
27409 H 55.78415228264765 183.33196912392316 143.29380570362187 H 0.0 **** 0.06
27410 H 55.21672852343653 182.86966219317142 141.67109436797924 H 0.0 **** 0.06
27411 C 0.2049489244345466 68.4545204083283 19.528638368762813 C 0.0 **** -0.24
27412 H -0.09718729460283271 67.5687261645801 18.968744652734017 H 0.0 **** 0.06
27413 H 1.1659990385892343 68.26888097473382 20.009016737467277 H 0.0 **** 0.06
27414 H -0.5453029607168673 68.67607090920296 20.287612126275974 H 0.0 **** 0.06
27415 H 0.2945632020328617 69.30033620285707 18.84796107648333 H 0.0 **** 0.06
27416 C 133.00427288088645 91.82457658087219 38.80148119102972 C 0.0 **** -0.24
27417 H 133.7842273853795 91.34612882030297 38.207607944367396 H 0.0 **** 0.06
27418 H 132.22166735344138 91.09853322787035 39.02369131557384 H 0.0 **** 0.06
27419 H 132.5793344367903 92.65654264278862 38.23945318106672 H 0.0 **** 0.06
27420 H 133.43247529126927 92.19528060951205 39.73196164120799 H 0.0 **** 0.06
27421 C 140.04193142970178 48.41296981802466 85.67619863393784 C 0.0 **** -0.24
27422 H 139.80718453266553 49.475090218005306 85.7448195386097 H 0.0 **** 0.06
27423 H 139.3733566535762 47.84928435536273 86.3265163565936 H 0.0 **** 0.06
27424 H 141.0741094241332 48.248343081098994 85.9853673696262 H 0.0 **** 0.06
27425 H 139.9140081298459 48.0792823381139 84.64606272324187 H 0.0 **** 0.06
27426 C 170.9949713007208 30.505329615389385 77.00895415020165 C 0.0 **** -0.24
27427 H 170.72789066677436 29.481413630815737 76.74774222296301 H 0.0 **** 0.06
27428 H 171.16075806397555 31.08118227482315 76.09856075068576 H 0.0 **** 0.06
27429 H 171.90485160717967 30.501818777489234 77.60917926265567 H 0.0 **** 0.06
27430 H 170.18393577963053 30.956241474517455 77.58193546698433 H 0.0 **** 0.06
27431 C 87.28870413572037 27.511018537750388 50.704688981671154 C 0.0 **** -0.24
27432 H 87.36085290922279 28.176487508958317 51.5641901491835 H 0.0 **** 0.06
27433 H 87.59753587725015 28.043368612421347 49.8057852005893 H 0.0 **** 0.06
27434 H 86.2575413845309 27.17444043018699 50.592095618623546 H 0.0 **** 0.06
27435 H 87.93725102850539 26.649023078691783 50.858010272811725 H 0.0 **** 0.06
27436 C 41.553034719945416 127.0545729745759 12.702461027405498 C 0.0 **** -0.24
27437 H 41.37324976214492 127.02686560543142 11.627632502354643 H 0.0 **** 0.06
27438 H 42.09339682169387 126.15800998202616 13.003599279872837 H 0.0 **** 0.06
27439 H 40.599810643231734 127.09920765869589 13.228509761596484 H 0.0 **** 0.06
27440 H 42.145046293732435 127.93621647249117 12.9482144054817 H 0.0 **** 0.06
27441 C 19.091973939686056 100.18578167504495 156.9485881079289 C 0.0 **** -0.24
27442 H 18.137281284181128 100.49093959282297 157.37754296687035 H 0.0 **** 0.06
27443 H 19.17357332002014 100.5730380242313 155.93254048974092 H 0.0 **** 0.06
27444 H 19.149510562963854 99.09714711482428 156.92819129908065 H 0.0 **** 0.06
27445 H 19.906220944905485 100.58172357405803 157.55562230203532 H 0.0 **** 0.06
27446 C 112.77481456267037 11.507438680313136 26.66239005665352 C 0.0 **** -0.24
27447 H 112.50417938264667 12.454650316808234 26.1958641760192 H 0.0 **** 0.06
27448 H 113.8587908295626 11.44971633498514 26.765143563306566 H 0.0 **** 0.06
27449 H 112.42266757119455 10.683358330996832 26.042221733987105 H 0.0 **** 0.06
27450 H 112.31301202732135 11.443887025743713 27.64780737595916 H 0.0 **** 0.06
27451 C 65.10596067717341 71.45390857582457 48.737189836611094 C 0.0 **** -0.24
27452 H 66.05717716899682 70.96777678693877 48.953163781622024 H 0.0 **** 0.06
27453 H 64.34184504871018 71.07396557481383 49.415347860382965 H 0.0 **** 0.06
27454 H 64.81659637964094 71.24476912678054 47.707362824628305 H 0.0 **** 0.06
27455 H 65.21061701171595 72.53073921548746 48.87369818853112 H 0.0 **** 0.06
27456 C 175.44539477659205 85.61584580558085 167.02791662986843 C 0.0 **** -0.24
27457 H 175.33402328675638 84.54629956868447 167.2043306506545 H 0.0 **** 0.06
27458 H 174.5180960379766 86.01445039941729 166.61407106533227 H 0.0 **** 0.06
27459 H 176.25978932138835 85.7858237769941 166.32417471592353 H 0.0 **** 0.06
27460 H 175.66811036215756 86.11867603201506 167.96937678753986 H 0.0 **** 0.06
27461 C 90.16547610360499 154.267760717599 75.13113711785678 C 0.0 **** -0.24
27462 H 91.0997330136737 153.71106937397383 75.06462068370925 H 0.0 **** 0.06
27463 H 89.32544480110073 153.57819156173056 75.04858126013484 H 0.0 **** 0.06
27464 H 90.11832289544228 154.9962823614174 74.32119669377822 H 0.0 **** 0.06
27465 H 90.11909146290438 154.78632399004718 76.08879064661969 H 0.0 **** 0.06
27466 C 60.94204500519359 9.09455545689724 12.428936309240669 C 0.0 **** -0.24
27467 H 61.145298536866335 8.384629819287781 13.23020109481736 H 0.0 **** 0.06
27468 H 60.580239061524196 8.558046870876773 11.550970073951447 H 0.0 **** 0.06
27469 H 61.85806658831609 9.62923127483166 12.17601353546592 H 0.0 **** 0.06
27470 H 60.18439821895933 9.80684012907517 12.757728957067215 H 0.0 **** 0.06
27471 C 106.27641285189088 176.51954851096093 99.95596011884459 C 0.0 **** -0.24
27472 H 107.30346306085625 176.77848676795008 100.21142539818041 H 0.0 **** 0.06
27473 H 106.17313675005391 176.4701179104283 98.87146697947702 H 0.0 **** 0.06
27474 H 105.60095464368271 177.27857818152816 100.35193218028701 H 0.0 **** 0.06
27475 H 106.02668518535484 175.55094868729284 100.38907114063156 H 0.0 **** 0.06
27476 C 14.880696691984554 99.52877350526452 155.15117840029112 C 0.0 **** -0.24
27477 H 15.758291627967992 100.16869439512453 155.239013757209 H 0.0 **** 0.06
27478 H 14.150702347854605 100.00171953591538 154.4940482775762 H 0.0 **** 0.06
27479 H 14.440558221747807 99.37879982700645 156.13615792716362 H 0.0 **** 0.06
27480 H 15.174792004043297 98.56483509164099 154.73337652087102 H 0.0 **** 0.06
27481 C 114.63549482398955 1.5954791221114775 99.45380402755313 C 0.0 **** -0.24
27482 H 114.68132914703008 0.7558335877722868 100.14820614428069 H 0.0 **** 0.06
27483 H 115.4781435045802 2.2640713282660982 99.63655357332468 H 0.0 **** 0.06
27484 H 113.70227187048053 2.13803530763343 99.60149073959312 H 0.0 **** 0.06
27485 H 114.68222642001874 1.2233373076076361 98.43024048988474 H 0.0 **** 0.06
27486 C 75.9633175580509 157.91159858607574 6.3660591920291125 C 0.0 **** -0.24
27487 H 76.94770419496913 157.46673064069432 6.509858120278132 H 0.0 **** 0.06
27488 H 75.81703874839249 158.71231150337618 7.092106745867071 H 0.0 **** 0.06
27489 H 75.1959988784944 157.14971906607326 6.5065951038165935 H 0.0 **** 0.06
27490 H 75.89169704634085 158.31775146382896 5.357749221871302 H 0.0 **** 0.06
27491 C 150.84428029578584 6.8392610568359515 172.49707735667224 C 0.0 **** -0.24
27492 H 151.64909281407023 7.566731640677382 172.39358323815765 H 0.0 **** 0.06
27493 H 150.09400536577675 7.016067339608071 171.72502632453427 H 0.0 **** 0.06
27494 H 150.38492980082285 6.942551779669522 173.48040377374173 H 0.0 **** 0.06
27495 H 151.24736056842366 5.832681577291389 172.38828528554944 H 0.0 **** 0.06
27496 C 118.45465195971036 196.9618693522383 6.494394133625889 C 0.0 **** -0.24
27497 H 118.53567400023542 196.41619323934754 7.435291430783579 H 0.0 **** 0.06
27498 H 119.22804833631429 196.61668776051425 5.806656943496577 H 0.0 **** 0.06
27499 H 118.58304681612665 198.0274812041217 6.681064424370334 H 0.0 **** 0.06
27500 H 117.47242262926568 196.78437768291644 6.056342842720788 H 0.0 **** 0.06
27501 C 17.24309669246074 18.531964772584047 35.61484985371487 C 0.0 **** -0.24
27502 H 17.343257252626813 19.610461656438474 35.740861904276926 H 0.0 **** 0.06
27503 H 18.1532308917442 18.040640133978286 35.961903979571616 H 0.0 **** 0.06
27504 H 17.08419531460075 18.30302838839725 34.56133376239342 H 0.0 **** 0.06
27505 H 16.393506199987357 18.175776400022073 36.19654779755507 H 0.0 **** 0.06
27506 C 84.59063790760524 155.74934770958401 15.345659285984866 C 0.0 **** -0.24
27507 H 85.59587287321176 156.1527527565965 15.464224444268993 H 0.0 **** 0.06
27508 H 83.86674320386948 156.44462174478713 15.77056180820469 H 0.0 **** 0.06
27509 H 84.5211441297622 154.79122795832052 15.860822213482209 H 0.0 **** 0.06
27510 H 84.37930000478366 155.60694068967535 14.28550305667487 H 0.0 **** 0.06
27511 C 107.20400390111098 88.30230176302459 7.606973471285784 C 0.0 **** -0.24
27512 H 107.92853161495478 88.30059876264448 8.420895678312377 H 0.0 **** 0.06
27513 H 107.26036800128958 89.25173014746818 7.073209906157018 H 0.0 **** 0.06
27514 H 106.20062591658325 88.17324053866429 8.013718501212054 H 0.0 **** 0.06
27515 H 107.4265982732378 87.48555567540976 6.921589477576674 H 0.0 **** 0.06
27516 C 165.2392164408957 124.48865479470894 166.10841716561924 C 0.0 **** -0.24
27517 H 165.80374531754234 125.4220908754017 166.1031299580868 H 0.0 **** 0.06
27518 H 165.38939266115779 123.97857952947604 167.06009621652228 H 0.0 **** 0.06
27519 H 165.58663724631725 123.85109324488371 165.29506807089308 H 0.0 **** 0.06
27520 H 164.17976344559523 124.70526026900538 165.97433851325968 H 0.0 **** 0.06
27521 C 192.15519487886496 86.60844779718505 183.49250228400672 C 0.0 **** -0.24
27522 H 191.62956438196625 87.50500924333087 183.16398008546813 H 0.0 **** 0.06
27523 H 192.73823358523913 86.83520250983804 184.38489000297477 H 0.0 **** 0.06
27524 H 192.82169456344064 86.26731376324378 182.6992328077818 H 0.0 **** 0.06
27525 H 191.4311990770741 85.82678900493971 183.71973402818955 H 0.0 **** 0.06
27526 C 101.55850641026436 83.07087620263522 125.05245871458825 C 0.0 **** -0.24
27527 H 100.89018518338193 82.46724832560287 125.66711863825617 H 0.0 **** 0.06
27528 H 101.91674841413703 82.47505455988039 124.21321029494976 H 0.0 **** 0.06
27529 H 102.40634458516257 83.39998836993897 125.65275970572341 H 0.0 **** 0.06
27530 H 101.01881607667076 83.93981357770141 124.67730295781837 H 0.0 **** 0.06
27531 C 44.42733866924536 80.08191095680593 96.8596700500303 C 0.0 **** -0.24
27532 H 44.64489793102156 79.478057733198 97.73993643414181 H 0.0 **** 0.06
27533 H 45.34048430926485 80.22409560774878 96.28196403408589 H 0.0 **** 0.06
27534 H 44.03843105964313 81.05087670219143 97.17074064008614 H 0.0 **** 0.06
27535 H 43.68510974562338 79.57274385171627 96.24489141793035 H 0.0 **** 0.06
27536 C 56.93537406824481 133.10460107174717 16.452677365972065 C 0.0 **** -0.24
27537 H 56.68839560218828 133.69123096950258 15.567601837489832 H 0.0 **** 0.06
27538 H 57.63793921289479 132.31665241379994 16.180909419045648 H 0.0 **** 0.06
27539 H 56.027269748978284 132.65860904813033 16.857077317636907 H 0.0 **** 0.06
27540 H 57.38782785174976 133.75313804313706 17.203001334107228 H 0.0 **** 0.06
27541 C 10.434329447959499 32.196483853188454 155.7219275446217 C 0.0 **** -0.24
27542 H 10.387247606175379 32.842669057466935 154.84491917415698 H 0.0 **** 0.06
27543 H 9.42848674957827 31.875730038130314 155.99122499618954 H 0.0 **** 0.06
27544 H 10.876287234453827 32.74582896670185 156.55348749692988 H 0.0 **** 0.06
27545 H 11.046227134006841 31.323695602481735 155.49580245432287 H 0.0 **** 0.06
27546 C 1.5438928025966092 11.912011926342416 13.398585453314183 C 0.0 **** -0.24
27547 H 2.077181641819223 12.861939907923244 13.377692714614255 H 0.0 **** 0.06
27548 H 1.163686905718599 11.730750292814577 14.404509110607194 H 0.0 **** 0.06
27549 H 2.2240895732155153 11.10789108270302 13.116382118810577 H 0.0 **** 0.06
27550 H 0.711935990988458 11.946466290058709 12.696257602249716 H 0.0 **** 0.06
27551 C 8.833557813117253 48.55801072136977 161.35896204332758 C 0.0 **** -0.24
27552 H 9.459039955166737 47.803669720523885 161.83615532066148 H 0.0 **** 0.06
27553 H 9.296853971569767 49.53821362967092 161.47320134862375 H 0.0 **** 0.06
27554 H 7.849958654452664 48.56342348908832 161.82827970958732 H 0.0 **** 0.06
27555 H 8.730557984057214 48.32572972208453 160.2986996851036 H 0.0 **** 0.06
27556 C 7.6418452692159065 130.34560865346424 23.144001017962694 C 0.0 **** -0.24
27557 H 7.335011410128686 129.6670887382579 22.34781046441293 H 0.0 **** 0.06
27558 H 6.9780217124773 131.20996967581115 23.159395468116088 H 0.0 **** 0.06
27559 H 8.665320932795169 130.67572882498996 22.96378464999475 H 0.0 **** 0.06
27560 H 7.59033829393951 129.82824585952486 24.101364285726703 H 0.0 **** 0.06
27561 C 34.01463027544342 152.89647427716608 54.54761828809632 C 0.0 **** -0.24
27562 H 34.887392252894145 153.18726611444254 53.961266547914875 H 0.0 **** 0.06
27563 H 33.568520892267856 152.00211806283997 54.11392595691967 H 0.0 **** 0.06
27564 H 33.28594657443104 153.7074628547532 54.54052696485371 H 0.0 **** 0.06
27565 H 34.32015032247192 152.69075351339808 55.57336589081768 H 0.0 **** 0.06
27566 C 186.8468826687676 6.680241984892973 126.6620987041805 C 0.0 **** -0.24
27567 H 186.5864950205309 6.392073878122211 127.68128913261796 H 0.0 **** 0.06
27568 H 186.02805287979163 6.417395897654558 125.99118035742015 H 0.0 **** 0.06
27569 H 187.7515019698029 6.154347609466335 126.35617270521487 H 0.0 **** 0.06
27570 H 187.01930931320328 7.755791386482478 126.62185916464841 H 0.0 **** 0.06
27571 C 174.62199028489923 54.90927666918046 114.11965124996271 C 0.0 **** -0.24
27572 H 174.41985361769326 55.974238203725236 114.01045255658968 H 0.0 **** 0.06
27573 H 173.7468226028398 54.33945349786546 113.80511699854662 H 0.0 **** 0.06
27574 H 174.84464576897045 54.6871332982106 115.16342351754136 H 0.0 **** 0.06
27575 H 175.4759435480851 54.63658992018415 113.50026088445492 H 0.0 **** 0.06
27576 C 5.646472629383595 13.433876856424405 85.252242038021 C 0.0 **** -0.24
27577 H 5.619900765605195 13.970265022279875 86.200787427076 H 0.0 **** 0.06
27578 H 5.5902873952626635 14.148152014067534 84.43019889891053 H 0.0 **** 0.06
27579 H 4.799626295567002 12.749830566107278 85.1981713477193 H 0.0 **** 0.06
27580 H 6.5756596129047225 12.869519634271711 85.1806589798318 H 0.0 **** 0.06
27581 C 77.20183579347912 20.413968420667914 35.46601503989535 C 0.0 **** -0.24
27582 H 77.92655035162971 21.209382121740987 35.29561107755461 H 0.0 **** 0.06
27583 H 76.24411530717686 20.695510740843247 35.028984078540645 H 0.0 **** 0.06
27584 H 77.08070562975604 20.2569909954708 36.53748516909326 H 0.0 **** 0.06
27585 H 77.55723938659366 19.49412572243193 35.0013674492001 H 0.0 **** 0.06
27586 C 104.02639624080919 107.83856263292176 0.7159771240794441 C 0.0 **** -0.24
27587 H 104.13234329717542 108.04715714325843 -0.34807325476032247 H 0.0 **** 0.06
27588 H 104.49594429844865 108.63717166894111 1.2914360189147374 H 0.0 **** 0.06
27589 H 104.50934560414356 106.88955598901083 0.9505703924862701 H 0.0 **** 0.06
27590 H 102.96785905227753 107.78089867632588 0.9712820211957194 H 0.0 **** 0.06
27591 C 114.83305086694523 96.79358442017451 123.05005266421782 C 0.0 **** -0.24
27592 H 114.255797288829 96.35122460870173 122.2390515827239 H 0.0 **** 0.06
27593 H 115.70770783844353 97.29876347890789 122.64002950815086 H 0.0 **** 0.06
27594 H 115.15321118774528 96.0100351924238 123.73651726636948 H 0.0 **** 0.06
27595 H 114.21425565391584 97.51454434600956 123.58526848478431 H 0.0 **** 0.06
27596 C 94.90559269215362 160.8405080575865 117.10870846649277 C 0.0 **** -0.24
27597 H 95.89747015621575 160.58226983798605 116.73543264597805 H 0.0 **** 0.06
27598 H 94.26611074495509 159.95792898349572 117.07985170333825 H 0.0 **** 0.06
27599 H 94.47472734676592 161.62150599011608 116.48205228472077 H 0.0 **** 0.06
27600 H 94.986160675013 161.1993961854056 118.13407218881997 H 0.0 **** 0.06
27601 C 172.7325720975224 174.32745400146652 130.54763086260243 C 0.0 **** -0.24
27602 H 172.28037359636508 173.33930224201708 130.63418318795456 H 0.0 **** 0.06
27603 H 172.92421664345818 174.7263601975942 131.5443078018225 H 0.0 **** 0.06
27604 H 172.0516226215683 174.99213760095472 130.01428177784342 H 0.0 **** 0.06
27605 H 173.67054725198787 174.2514008581125 129.99883383062695 H 0.0 **** 0.06
27606 C 166.24674089155292 72.4819222009769 149.05806136772938 C 0.0 **** -0.24
27607 H 166.1499682873058 72.25583266148658 150.12037266139743 H 0.0 **** 0.06
27608 H 167.04498734792685 73.2109054590984 148.91376405165943 H 0.0 **** 0.06
27609 H 165.30735553053563 72.89125511889154 148.68677524795496 H 0.0 **** 0.06
27610 H 166.48569662461927 71.56839835823916 148.5140218305961 H 0.0 **** 0.06
27611 C 176.58127003878735 176.72043477987287 0.8006603022571639 C 0.0 **** -0.24
27612 H 176.96769517409794 177.64111786229273 0.3621742891063917 H 0.0 **** 0.06
27613 H 177.08291296816506 175.86515073149027 0.3476456708168101 H 0.0 **** 0.06
27614 H 175.50924038606377 176.6530891363327 0.6171455713910987 H 0.0 **** 0.06
27615 H 176.76639136742273 176.72406156527154 1.8747634722645259 H 0.0 **** 0.06
27616 C 197.08412476453375 41.953102840716156 73.9378526947063 C 0.0 **** -0.24
27617 H 196.74844863520724 42.99010334670908 73.90318002633717 H 0.0 **** 0.06
27618 H 196.8862422332381 41.47468593456415 72.9784641092366 H 0.0 **** 0.06
27619 H 196.54699421100332 41.42560934197752 74.72597771981918 H 0.0 **** 0.06
27620 H 198.15375045664254 41.924881105531824 74.1450701867181 H 0.0 **** 0.06
27621 C 9.28762401952011 5.975387576266542 174.06444555095786 C 0.0 **** -0.24
27622 H 10.328786106494817 6.274326845034295 173.9413662519137 H 0.0 **** 0.06
27623 H 9.152888345651462 5.524659542098249 175.04814125513835 H 0.0 **** 0.06
27624 H 9.023705313766243 5.252333294802867 173.29360180934535 H 0.0 **** 0.06
27625 H 8.64517650583062 6.852268816289836 173.97559063110913 H 0.0 **** 0.06
27626 C 4.041931396795427 89.61464765651874 5.428324651649859 C 0.0 **** -0.24
27627 H 3.8546052673176874 89.60128650178626 4.355533413380243 H 0.0 **** 0.06
27628 H 4.982966245320505 89.10642090122457 5.639712140762043 H 0.0 **** 0.06
27629 H 3.2299087506413215 89.1044326507548 5.94561232280747 H 0.0 **** 0.06
27630 H 4.100889253270665 90.64733238884696 5.774116391020357 H 0.0 **** 0.06
27631 C 46.93772759216779 90.29147877877722 33.51233861037301 C 0.0 **** -0.24
27632 H 46.07690967766439 89.85962531899028 34.02330514573072 H 0.0 **** 0.06
27633 H 47.469051048092695 89.50767502109076 32.971152165658964 H 0.0 **** 0.06
27634 H 47.60594720559294 90.74437640312459 34.24590183738229 H 0.0 **** 0.06
27635 H 46.59867793126509 91.05324315537462 32.80994623073815 H 0.0 **** 0.06
27636 C 135.57279379923295 10.691502454915678 159.19516538355276 C 0.0 **** -0.24
27637 H 135.00548944193335 11.482636107395194 159.68437287501965 H 0.0 **** 0.06
27638 H 135.63328863700164 10.894543715861403 158.12556530820746 H 0.0 **** 0.06
27639 H 135.07575363959074 9.73503949282815 159.3563310083776 H 0.0 **** 0.06
27640 H 136.57796240387617 10.653027448155626 159.61521590005844 H 0.0 **** 0.06
27641 C 63.810284839405085 55.0944581864174 50.194599759223806 C 0.0 **** -0.24
27642 H 62.95814559910741 54.99570328556328 49.5216407103791 H 0.0 **** 0.06
27643 H 63.50076513040966 55.62479743714795 51.09563501327041 H 0.0 **** 0.06
27644 H 64.60231406106533 55.65447930414828 49.696671291879625 H 0.0 **** 0.06
27645 H 64.1787738875916 54.10396546387767 50.462591704587965 H 0.0 **** 0.06
27646 C 163.15036082188175 138.461966566387 123.14219350717173 C 0.0 **** -0.24
27647 H 163.79131883613553 138.55699106932968 122.26497638611636 H 0.0 **** 0.06
27648 H 162.9509555472663 137.40756425663807 123.33371632635107 H 0.0 **** 0.06
27649 H 162.20925596601856 138.9823974729303 122.96182714446607 H 0.0 **** 0.06
27650 H 163.6491910314925 138.90130220946224 124.00594595608632 H 0.0 **** 0.06
27651 C 38.94136609775859 99.71508318805778 50.26296327035453 C 0.0 **** -0.24
27652 H 39.524434656254755 100.37853175919892 50.900771789109825 H 0.0 **** 0.06
27653 H 37.95904131553249 100.15211819908632 50.08576257146672 H 0.0 **** 0.06
27654 H 38.82533589264676 98.74827846748164 50.75392287172457 H 0.0 **** 0.06
27655 H 39.45672827858803 99.57859040672412 49.31243330363819 H 0.0 **** 0.06
27656 C 15.13586229152159 128.2660109564361 33.38401641607646 C 0.0 **** -0.24
27657 H 15.991768975954813 127.66014156374476 33.68111691253537 H 0.0 **** 0.06
27658 H 14.993131639435148 129.07086875062367 34.10532881868204 H 0.0 **** 0.06
27659 H 14.242514267721276 127.64234245476209 33.35344538700588 H 0.0 **** 0.06
27660 H 15.316920792273038 128.6903579202644 32.396495705005265 H 0.0 **** 0.06
27661 C 116.96175541295935 39.940701030638365 195.48886090115096 C 0.0 **** -0.24
27662 H 117.2653582283746 40.893463880326294 195.92154085717036 H 0.0 **** 0.06
27663 H 116.00635203321463 39.63596786872844 195.91711057709998 H 0.0 **** 0.06
27664 H 117.71621570762554 39.1844477120834 195.70766054408222 H 0.0 **** 0.06
27665 H 116.85768788272017 40.04898339327099 194.40925284191493 H 0.0 **** 0.06
27666 C 124.90364088853553 119.45397213060292 75.25357059456206 C 0.0 **** -0.24
27667 H 125.14399948696081 118.42642104262202 75.5272057474476 H 0.0 **** 0.06
27668 H 125.59063811751827 120.13378168312153 75.7578289292195 H 0.0 **** 0.06
27669 H 123.88045922192629 119.68024243585543 75.55590110688803 H 0.0 **** 0.06
27670 H 124.99955331329141 119.5741228655341 74.17484622185607 H 0.0 **** 0.06
27671 C 89.28886589175474 105.56550172951052 128.12050421919912 C 0.0 **** -0.24
27672 H 88.83659325381947 105.00131355929386 128.93525806006858 H 0.0 **** 0.06
27673 H 88.62686708217726 105.54583710117163 127.25451255008704 H 0.0 **** 0.06
27674 H 90.24721984438384 105.11843030369613 127.85610201296615 H 0.0 **** 0.06
27675 H 89.44378190346012 106.59835052505878 128.4356028062562 H 0.0 **** 0.06
27676 C 73.95147069800124 55.40270741476161 194.77616267304052 C 0.0 **** -0.24
27677 H 74.18889450193335 56.46674653786894 194.77938354979034 H 0.0 **** 0.06
27678 H 73.80824727953603 55.05980613188359 195.8008769969468 H 0.0 **** 0.06
27679 H 74.77052353070684 54.849381516538074 194.31827779767346 H 0.0 **** 0.06
27680 H 73.0370189227869 55.236783136321094 194.20612953392768 H 0.0 **** 0.06
27681 C 98.24565667699764 164.81023647806776 141.54004807635826 C 0.0 **** -0.24
27682 H 98.05486514695826 165.3691224892478 142.45585192372104 H 0.0 **** 0.06
27683 H 98.30908248707283 165.5001656188752 140.69895615763144 H 0.0 **** 0.06
27684 H 97.43306723020717 164.10340986990346 141.3704449172531 H 0.0 **** 0.06
27685 H 99.18584680759588 164.26620843655365 141.636275484533 H 0.0 **** 0.06
27686 C 48.83915154875589 0.8252197387128604 123.60339983314685 C 0.0 **** -0.24
27687 H 49.268464196509484 1.4056148405389877 124.41961539467758 H 0.0 **** 0.06
27688 H 47.79581639893411 1.1125428361762602 123.46321444702116 H 0.0 **** 0.06
27689 H 48.89385151561879 -0.23682768980501123 123.84484730154816 H 0.0 **** 0.06
27690 H 49.3956933126735 1.0197317446403815 122.68703308909957 H 0.0 **** 0.06
27691 C 4.785069478159514 53.29176876961891 184.84467323725775 C 0.0 **** -0.24
27692 H 5.064605011308345 52.67835018406656 183.98905756867686 H 0.0 **** 0.06
27693 H 3.714509498505471 53.19308429208763 185.02791191915108 H 0.0 **** 0.06
27694 H 5.022848060122911 54.334754335146144 184.63661764731646 H 0.0 **** 0.06
27695 H 5.336133583849438 52.96127021944672 185.7248014833947 H 0.0 **** 0.06
27696 C 19.608110075448565 89.91775313069854 12.188876339581519 C 0.0 **** -0.24
27697 H 19.232781488386976 89.58312341496955 11.2215107938096 H 0.0 **** 0.06
27698 H 20.4406256727017 89.28343759331602 12.493194036275504 H 0.0 **** 0.06
27699 H 18.810581909696538 89.85118586759754 12.92941960206381 H 0.0 **** 0.06
27700 H 19.947054517085434 90.95060808318013 12.109971393269433 H 0.0 **** 0.06
27701 C 177.77496921727885 17.015921884693256 176.48904974906242 C 0.0 **** -0.24
27702 H 177.6189632082967 17.94307333551457 175.93759712774522 H 0.0 **** 0.06
27703 H 178.7083763730843 17.078805743874952 177.04810464473314 H 0.0 **** 0.06
27704 H 177.8253346555794 16.181183609087924 175.78966500229353 H 0.0 **** 0.06
27705 H 176.94695044142208 16.861347218059805 177.1814761207433 H 0.0 **** 0.06
27706 C 183.21363915753818 188.9779017192908 98.48802705180174 C 0.0 **** -0.24
27707 H 182.82063222278737 189.97090447776048 98.70480975476792 H 0.0 **** 0.06
27708 H 183.84729026124637 188.64909075924663 99.31258956889923 H 0.0 **** 0.06
27709 H 183.80154885422814 189.01251479479433 97.57052837741867 H 0.0 **** 0.06
27710 H 182.38714841360587 188.2793970032742 98.36337208661331 H 0.0 **** 0.06
27711 C 67.86250787597265 36.933705145675845 98.71301292951117 C 0.0 **** -0.24
27712 H 68.23495060009796 37.72785817663987 98.06657418908443 H 0.0 **** 0.06
27713 H 68.55729134269318 36.78228060132834 99.53878542373582 H 0.0 **** 0.06
27714 H 67.77175545722517 36.01083755878844 98.13964907461565 H 0.0 **** 0.06
27715 H 66.88564723968788 37.21408899025633 99.10615395359224 H 0.0 **** 0.06
27716 C 166.53622072881103 82.12385626738987 118.62357836894606 C 0.0 **** -0.24
27717 H 166.0596069910423 83.04781670894513 118.29616558835966 H 0.0 **** 0.06
27718 H 166.4579747272989 82.03951752446775 119.70743039721427 H 0.0 **** 0.06
27719 H 167.5865097498691 82.13438703187177 118.33359088564919 H 0.0 **** 0.06
27720 H 166.03844115147447 81.27342009977025 118.15649751614336 H 0.0 **** 0.06
27721 C 128.92631853372598 9.272613071297798 119.59962541678021 C 0.0 **** -0.24
27722 H 128.4087676091067 8.937684469690083 120.49834091483638 H 0.0 **** 0.06
27723 H 128.5692901700029 10.264765750003278 119.32311231374206 H 0.0 **** 0.06
27724 H 128.73030689359518 8.574981766573075 118.78609627974458 H 0.0 **** 0.06
27725 H 129.99934321909245 9.31326839965709 119.7931916924984 H 0.0 **** 0.06
27726 C 179.60515535617841 157.89986066572527 59.13019164593089 C 0.0 **** -0.24
27727 H 180.53426440142027 157.33092681912262 59.09132842592223 H 0.0 **** 0.06
27728 H 178.9005161854342 157.39770293305767 59.79463575757143 H 0.0 **** 0.06
27729 H 179.1782319466985 157.96737028139006 58.12995691396898 H 0.0 **** 0.06
27730 H 179.8093097615409 158.90196278130568 59.5070629861911 H 0.0 **** 0.06
27731 C 158.27241230618608 109.49414866831904 189.15022155609984 C 0.0 **** -0.24
27732 H 158.38887701259608 109.21884836327558 190.1982732672693 H 0.0 **** 0.06
27733 H 158.05863259218643 108.60090458146496 188.56190790501816 H 0.0 **** 0.06
27734 H 159.19237736868172 109.95422283422081 188.79130276247247 H 0.0 **** 0.06
27735 H 157.44949347439336 110.20165753718754 189.04946206484766 H 0.0 **** 0.06
27736 C 102.95703801975765 163.93264352809877 144.1152214877783 C 0.0 **** -0.24
27737 H 103.47008474932213 163.64665409963857 145.03369238720512 H 0.0 **** 0.06
27738 H 101.97347583627192 163.46244804162217 144.08612948760123 H 0.0 **** 0.06
27739 H 103.54192763700974 163.6069522413398 143.25518602464524 H 0.0 **** 0.06
27740 H 102.84243331007494 165.01687762305926 144.08650039998207 H 0.0 **** 0.06
27741 C 194.51578739410309 74.23987681677815 170.42164608293973 C 0.0 **** -0.24
27742 H 195.47936958447906 73.7930993174414 170.66697426069007 H 0.0 **** 0.06
27743 H 193.78310952359968 73.45141028674065 170.2491370839368 H 0.0 **** 0.06
27744 H 194.6158667379812 74.84627977513799 169.5208362899991 H 0.0 **** 0.06
27745 H 194.18624987386838 74.868874459722 171.2476658384719 H 0.0 **** 0.06
27746 C 194.74494398217922 91.38929870928837 167.79865164244814 C 0.0 **** -0.24
27747 H 195.3498125363067 90.52143187947019 168.06155253984502 H 0.0 **** 0.06
27748 H 193.99744686090642 91.55787537392825 168.574119019703 H 0.0 **** 0.06
27749 H 194.2464480133467 91.20849473347238 166.84651805621343 H 0.0 **** 0.06
27750 H 195.38523382850462 92.26604546608755 167.71386561371133 H 0.0 **** 0.06
27751 C 47.04278716577339 177.0157154985607 183.78029495320916 C 0.0 **** -0.24
27752 H 47.766114411546894 176.30735977385484 183.3763933002919 H 0.0 **** 0.06
27753 H 46.052418429115804 176.5586205588532 183.78651594039437 H 0.0 **** 0.06
27754 H 47.02614983491719 177.91089546974916 183.15894183933221 H 0.0 **** 0.06
27755 H 47.32582758148688 177.28442868462764 184.79785675548072 H 0.0 **** 0.06
27756 C 111.47404160420862 130.28517465972982 136.75956458045658 C 0.0 **** -0.24
27757 H 112.22961248607288 130.2058680471732 135.97751227994974 H 0.0 **** 0.06
27758 H 111.0638339589556 131.29464765710622 136.76688725944487 H 0.0 **** 0.06
27759 H 111.92909420070742 130.06916409381495 137.72550775869166 H 0.0 **** 0.06
27760 H 110.67476331084893 129.56882576249282 136.5655409145997 H 0.0 **** 0.06
27761 C 95.02802581443558 93.88755490824454 148.72150445145593 C 0.0 **** -0.24
27762 H 95.12070775527707 93.22892480417678 149.58441122636646 H 0.0 **** 0.06
27763 H 94.07406022980615 93.70521201513012 148.22591244941702 H 0.0 **** 0.06
27764 H 95.84282643293136 93.69068714820293 148.02454051676034 H 0.0 **** 0.06
27765 H 95.0737441755482 94.92559476752766 149.04961227882131 H 0.0 **** 0.06
27766 C 131.79087215833505 83.55824575187737 139.17334392822215 C 0.0 **** -0.24
27767 H 130.88059750443466 83.32259132009881 139.72558096711487 H 0.0 **** 0.06
27768 H 132.0627582063429 82.71068417474282 138.5441499727409 H 0.0 **** 0.06
27769 H 132.59872443312707 83.7642870443714 139.87672747047577 H 0.0 **** 0.06
27770 H 131.6205332352098 84.43477319178245 138.54911163454085 H 0.0 **** 0.06
27771 C 109.0059891532602 80.21319631611323 22.151863239590227 C 0.0 **** -0.24
27772 H 109.63685513723527 79.32628665012527 22.193420412441768 H 0.0 **** 0.06
27773 H 108.55053171086522 80.3815648284691 23.12827005409318 H 0.0 **** 0.06
27774 H 108.2241961502134 80.06893132718767 21.40549468666201 H 0.0 **** 0.06
27775 H 109.61169453279498 81.07874798506612 21.88030105387199 H 0.0 **** 0.06
27776 C 185.3259997303952 193.5265528135772 36.06448471934533 C 0.0 **** -0.24
27777 H 184.53363985614794 194.16666260721541 36.45291743131145 H 0.0 **** 0.06
27778 H 184.9134702339799 192.54907150068394 35.81297647443738 H 0.0 **** 0.06
27779 H 186.10273115091798 193.41012488188161 36.821156079902025 H 0.0 **** 0.06
27780 H 185.75445559060373 193.98165628147314 35.171348056876255 H 0.0 **** 0.06
27781 C 189.9370064822868 17.245112643447214 198.74970520367805 C 0.0 **** -0.24
27782 H 189.74436471626063 17.177924434718307 197.67924429165964 H 0.0 **** 0.06
27783 H 190.00099167259194 16.2417218034023 199.17017207601904 H 0.0 **** 0.06
27784 H 189.12592976701896 17.790190285192125 199.23097080152343 H 0.0 **** 0.06
27785 H 190.8769236175265 17.770745329780084 198.9167163709581 H 0.0 **** 0.06
27786 C 147.9989750963855 4.144248553552224 186.9376405420776 C 0.0 **** -0.24
27787 H 147.18854048433937 3.45075744412798 186.71248834884423 H 0.0 **** 0.06
27788 H 147.590570325987 5.037233166295906 187.4124749778971 H 0.0 **** 0.06
27789 H 148.5058474464896 4.423223183646613 186.013915335695 H 0.0 **** 0.06
27790 H 148.70975736112334 3.666549454354616 187.61175390001898 H 0.0 **** 0.06
27791 C 74.21995762540297 125.06886497008634 70.92128639837301 C 0.0 **** -0.24
27792 H 74.6117999962158 124.13940102251343 71.33477402298709 H 0.0 **** 0.06
27793 H 74.3664809423226 125.87608834632528 71.63853740629702 H 0.0 **** 0.06
27794 H 73.15629409606348 124.9552404049424 70.71357019174175 H 0.0 **** 0.06
27795 H 74.74715231615578 125.3040570166387 69.9960393134316 H 0.0 **** 0.06
27796 C 139.64085674684566 186.0799891478868 123.01807787685553 C 0.0 **** -0.24
27797 H 139.17115893977223 186.76571925548768 123.72405655688533 H 0.0 **** 0.06
27798 H 138.96629867931176 185.24722950678495 122.81815167961133 H 0.0 **** 0.06
27799 H 140.57034286417138 185.70185420818603 123.44191295588774 H 0.0 **** 0.06
27800 H 139.8526320744973 186.60687693883955 122.08715888489562 H 0.0 **** 0.06
27801 C 88.12563317583658 174.20218890509767 30.689130758092645 C 0.0 **** -0.24
27802 H 88.32329206666532 175.23652576621603 30.407697100775025 H 0.0 **** 0.06
27803 H 88.8009156163983 173.542356767453 30.14545177790677 H 0.0 **** 0.06
27804 H 87.094159619891 173.9499705325344 30.44327129412497 H 0.0 **** 0.06
27805 H 88.28239554041397 174.081468241076 31.760748111395046 H 0.0 **** 0.06
27806 C 197.00502410428285 71.12398375371197 164.17714570722666 C 0.0 **** -0.24
27807 H 197.95554615434588 71.10223868296964 164.70799560700107 H 0.0 **** 0.06
27808 H 196.62397809594478 72.1446803317539 164.15409998154578 H 0.0 **** 0.06
27809 H 196.28883483067892 70.4802713010854 164.6889336605812 H 0.0 **** 0.06
27810 H 197.14992674747157 70.76637021659411 163.15726410393566 H 0.0 **** 0.06
27811 C 199.1047560104854 7.082455883105808 165.3486522241235 C 0.0 **** -0.24
27812 H 199.95596335915877 7.340275196013636 164.71864354942835 H 0.0 **** 0.06
27813 H 199.40034455648066 7.138304410732502 166.39664175188034 H 0.0 **** 0.06
27814 H 198.77499311455853 6.070088571346304 165.11756670371102 H 0.0 **** 0.06
27815 H 198.2903459143355 7.782520405821202 165.16325930759683 H 0.0 **** 0.06
27816 C 176.41413519342086 52.51208750283578 165.69168224153523 C 0.0 **** -0.24
27817 H 176.4264244767973 52.220638661657375 166.74249205049273 H 0.0 **** 0.06
27818 H 177.4088247331946 52.38123964653499 165.26637973113625 H 0.0 **** 0.06
27819 H 176.11801523426126 53.55778554366884 165.60916401995786 H 0.0 **** 0.06
27820 H 175.70167758227888 51.88937784612111 165.15009519352054 H 0.0 **** 0.06
27821 C 175.97452896038777 108.04121887924254 118.98482524682808 C 0.0 **** -0.24
27822 H 175.23051400646173 108.06194906155508 119.78114345608458 H 0.0 **** 0.06
27823 H 176.0890222203937 109.04221279356594 118.56789938169791 H 0.0 **** 0.06
27824 H 175.64776772316947 107.35621109869973 118.20206977414094 H 0.0 **** 0.06
27825 H 176.92887331454963 107.70344992744899 119.38782233512853 H 0.0 **** 0.06
27826 C 105.3076487104698 114.52698788416922 97.41128780610353 C 0.0 **** -0.24
27827 H 106.10805704972697 115.2569728788892 97.53384020289926 H 0.0 **** 0.06
27828 H 105.7330544946316 113.56927563369484 97.11025481523498 H 0.0 **** 0.06
27829 H 104.61419934489075 114.87381245983693 96.64695652047916 H 0.0 **** 0.06
27830 H 104.77808074275853 114.40751976794817 98.35634484862175 H 0.0 **** 0.06
27831 C 85.28368934310754 121.26818804130971 82.84583152517183 C 0.0 **** -0.24
27832 H 85.86534414722382 120.6396408694531 82.1706013048261 H 0.0 **** 0.06
27833 H 85.2948673886489 122.29614258723774 82.48265223284042 H 0.0 **** 0.06
27834 H 85.72038451406272 121.23068377615311 83.84353510216505 H 0.0 **** 0.06
27835 H 84.25651947793239 120.90600053834203 82.88316721005816 H 0.0 **** 0.06
27836 C 50.78485689540537 107.76459577648376 75.94860399947135 C 0.0 **** -0.24
27837 H 51.0195964229805 108.79199146352994 76.22504226798014 H 0.0 **** 0.06
27838 H 50.238334457319866 107.75887833781411 75.00572425628809 H 0.0 **** 0.06
27839 H 50.17209725254634 107.30940839929383 76.72687500623988 H 0.0 **** 0.06
27840 H 51.70952748163643 107.19909646734072 75.83675363670767 H 0.0 **** 0.06
27841 C 188.33523816121158 153.32257577520107 180.77913119264926 C 0.0 **** -0.24
27842 H 187.7974491501475 153.95981792309954 180.07654445452303 H 0.0 **** 0.06
27843 H 188.0882532682906 153.61869184343965 181.79941225823939 H 0.0 **** 0.06
27844 H 189.40809712099906 153.42954497707447 180.61912830553234 H 0.0 **** 0.06
27845 H 188.04656950940853 152.2834713971767 180.62184426699133 H 0.0 **** 0.06
27846 C 138.73861181224217 92.36811411535095 156.804203125927 C 0.0 **** -0.24
27847 H 139.2508145884884 92.55316563849863 155.86043042297484 H 0.0 **** 0.06
27848 H 138.74878533059083 91.29937381079657 157.0183674200283 H 0.0 **** 0.06
27849 H 137.70805689988217 92.71533611242097 156.73269696236744 H 0.0 **** 0.06
27850 H 139.24849182137666 92.90425870350259 157.6053567095686 H 0.0 **** 0.06
27851 C 75.27571264744279 140.15100159413709 29.64529580632839 C 0.0 **** -0.24
27852 H 75.83750145686969 139.24899383026133 29.886496956250113 H 0.0 **** 0.06
27853 H 74.36780579349477 140.18572742283484 30.247383791369828 H 0.0 **** 0.06
27854 H 75.01158186586156 140.14347181974745 28.588145911749734 H 0.0 **** 0.06
27855 H 75.88760441759399 141.02707975614177 29.859991395963164 H 0.0 **** 0.06
27856 C 133.7948293119998 52.842772173146216 48.96471196467306 C 0.0 **** -0.24
27857 H 133.67193351835868 51.94084875424326 49.56385588776618 H 0.0 **** 0.06
27858 H 134.25903038188167 52.58525880454721 48.01286801340103 H 0.0 **** 0.06
27859 H 134.42954360015045 53.550287415698335 49.49957799181712 H 0.0 **** 0.06
27860 H 132.8198311766239 53.29432834237576 48.78389624279046 H 0.0 **** 0.06
27861 C 46.92612104967117 68.55473985859047 83.11325908890663 C 0.0 **** -0.24
27862 H 46.184152595155126 68.16250693959404 82.41704011952231 H 0.0 **** 0.06
27863 H 47.92667553332359 68.36797409648592 82.72168025379324 H 0.0 **** 0.06
27864 H 46.815051333499156 68.0615960042523 84.07851725178594 H 0.0 **** 0.06
27865 H 46.777379860982705 69.62780113943236 83.23416910037446 H 0.0 **** 0.06
27866 C 31.359580430311496 96.07686175457363 136.0477090345009 C 0.0 **** -0.24
27867 H 31.894045530275406 95.3078039682907 135.48961955184325 H 0.0 **** 0.06
27868 H 30.868625604959476 95.62553437262574 136.9099187751618 H 0.0 **** 0.06
27869 H 30.611092291815794 96.5398577348393 135.40352044174244 H 0.0 **** 0.06
27870 H 32.065042504845565 96.83510939971441 136.387608215656 H 0.0 **** 0.06
27871 C 64.11919726019516 167.98428915551568 167.7774009973137 C 0.0 **** -0.24
27872 H 63.691258133550946 168.20102155305807 168.7556805244346 H 0.0 **** 0.06
27873 H 63.73179572590141 168.69443053554681 167.0460604620517 H 0.0 **** 0.06
27874 H 63.84835008172365 166.97145481127313 167.47926163583514 H 0.0 **** 0.06
27875 H 65.20426290092735 168.06951250719538 167.82815726399335 H 0.0 **** 0.06
27876 C 101.993659924849 137.70876854561456 16.82762581032162 C 0.0 **** -0.24
27877 H 101.60415213060861 138.51622076107472 16.208202477929248 H 0.0 **** 0.06
27878 H 101.43745053791449 136.7938618634297 16.621928030105266 H 0.0 **** 0.06
27879 H 101.88291761457512 137.9724550574015 17.87957649969526 H 0.0 **** 0.06
27880 H 103.04795055725006 137.55307731668512 16.600735600025104 H 0.0 **** 0.06
27881 C 165.32563565042892 108.70930457922913 45.52798450468636 C 0.0 **** -0.24
27882 H 164.85547007758873 108.21660591265055 46.37961767787989 H 0.0 **** 0.06
27883 H 166.23938047659254 108.17789716538456 45.26100464345677 H 0.0 **** 0.06
27884 H 165.56794636808974 109.73883817921822 45.792487389424664 H 0.0 **** 0.06
27885 H 164.64045207495187 108.70259271131283 44.68079085337257 H 0.0 **** 0.06
27886 C 33.204368111573444 183.79520824136304 87.83588155694622 C 0.0 **** -0.24
27887 H 33.97399227351731 184.07339730117428 88.55585737467538 H 0.0 **** 0.06
27888 H 32.49495640989389 183.11389272239165 88.30712980823466 H 0.0 **** 0.06
27889 H 33.6680745099799 183.30381978810948 86.9802148821841 H 0.0 **** 0.06
27890 H 32.68100303853956 184.6905558167523 87.5003202314781 H 0.0 **** 0.06
27891 C 163.57811434820263 36.040982889588975 136.550155219534 C 0.0 **** -0.24
27892 H 163.56859202354303 35.63993584982711 135.5372009975366 H 0.0 **** 0.06
27893 H 164.35423639478947 35.54249930337488 137.13102987810225 H 0.0 **** 0.06
27894 H 162.60789039163285 35.869667527020454 137.01701624239163 H 0.0 **** 0.06
27895 H 163.78055823328347 37.11132704000033 136.51477796095037 H 0.0 **** 0.06
27896 C 151.62348263292654 97.59497811720246 22.192093206294274 C 0.0 **** -0.24
27897 H 152.0805328662882 97.4304124164021 21.215702442885515 H 0.0 **** 0.06
27898 H 151.2516544371867 96.6468072899884 22.582617973974607 H 0.0 **** 0.06
27899 H 150.7950276849839 98.29650425624033 22.091057715492198 H 0.0 **** 0.06
27900 H 152.36592736894715 98.0043938553861 22.875807482063323 H 0.0 **** 0.06
27901 C 147.8527016685393 167.48712542420975 139.31952461309893 C 0.0 **** -0.24
27902 H 147.3507992070425 167.92533803891126 138.45720025786227 H 0.0 **** 0.06
27903 H 148.35244274239705 168.27276596087057 139.88698959682205 H 0.0 **** 0.06
27904 H 148.5888632056786 166.75934832730815 138.97953439117214 H 0.0 **** 0.06
27905 H 147.11739527027746 166.9909662364846 139.95383862623103 H 0.0 **** 0.06
27906 C 48.346103313870586 160.49457336766736 110.39247989161925 C 0.0 **** -0.24
27907 H 48.17292583819825 160.5720256852894 111.46536681975243 H 0.0 **** 0.06
27908 H 49.33304278810732 160.0675737439235 110.21323568224622 H 0.0 **** 0.06
27909 H 48.293239662869155 161.48652822103037 109.94310955591948 H 0.0 **** 0.06
27910 H 47.58541423267407 159.85323616236488 109.94653100559489 H 0.0 **** 0.06
27911 C 96.93046385596156 33.149978838945344 65.3242053848441 C 0.0 **** -0.24
27912 H 97.52499969690751 32.69579833237128 64.53124202304434 H 0.0 **** 0.06
27913 H 95.89586889020498 33.2401629205209 64.99492018071157 H 0.0 **** 0.06
27914 H 97.32735914098623 34.13916332943751 65.55382217979417 H 0.0 **** 0.06
27915 H 96.97679890125195 32.524788254671904 66.21544298628629 H 0.0 **** 0.06
27916 C 27.840685973407574 57.72344090455425 178.65446831735028 C 0.0 **** -0.24
27917 H 27.423832254856222 56.73241345728792 178.47133916260083 H 0.0 **** 0.06
27918 H 28.926751713467297 57.65399623645936 178.71660792855263 H 0.0 **** 0.06
27919 H 27.447128425091933 58.11455738033061 179.5919340557107 H 0.0 **** 0.06
27920 H 27.564397130232578 58.389979896831676 177.83717709663478 H 0.0 **** 0.06
27921 C 2.082539272161654 98.118065229622 104.94308272657548 C 0.0 **** -0.24
27922 H 1.8035065162777073 97.10518700900161 104.65214953730197 H 0.0 **** 0.06
27923 H 2.7829321093779242 98.52528387140416 104.21391228495818 H 0.0 **** 0.06
27924 H 2.5523919264352344 98.0957677479166 105.92669647293172 H 0.0 **** 0.06
27925 H 1.1907702455333435 98.74365944406924 104.97990067866843 H 0.0 **** 0.06
27926 C 188.41350549420127 14.584103592750125 167.18863504713175 C 0.0 **** -0.24
27927 H 188.68601629516104 15.131083892362653 166.2869416053729 H 0.0 **** 0.06
27928 H 187.38115695461528 14.242368883248986 167.1084129675628 H 0.0 **** 0.06
27929 H 188.5124743827072 15.238469740672542 168.05506150014835 H 0.0 **** 0.06
27930 H 189.07283399440234 13.723672353778255 167.3055226319505 H 0.0 **** 0.06
27931 C 128.96222088504996 68.24200709176239 0.3810657626926357 C 0.0 **** -0.24
27932 H 127.91345982254398 68.15582670688096 0.6652538291156276 H 0.0 **** 0.06
27933 H 129.44075945822127 67.26534632738932 0.45734996975709663 H 0.0 **** 0.06
27934 H 129.4626633812472 68.94529938229908 1.0459002699522841 H 0.0 **** 0.06
27935 H 129.0310503127932 68.60157616287623 -0.6462649066320765 H 0.0 **** 0.06
27936 C 75.46641507315661 139.91691039618146 46.48616366500289 C 0.0 **** -0.24
27937 H 76.10930151138297 140.77357874416933 46.686613248366 H 0.0 **** 0.06
27938 H 75.74325043032013 139.4701122340636 45.53150757007626 H 0.0 **** 0.06
27939 H 74.42735696104984 140.24343024779756 46.448591080197275 H 0.0 **** 0.06
27940 H 75.58672303271123 139.18050569198732 47.28078105128566 H 0.0 **** 0.06
27941 C 130.62003051809762 83.7671158763917 166.48139153177544 C 0.0 **** -0.24
27942 H 131.20878608888825 84.27094135729854 165.71346543508324 H 0.0 **** 0.06
27943 H 130.63177389181007 82.6920117963898 166.3005573388598 H 0.0 **** 0.06
27944 H 129.59405902947498 84.13084886306765 166.4480980425178 H 0.0 **** 0.06
27945 H 131.04866686839821 83.97659072762383 167.46163734616795 H 0.0 **** 0.06
27946 C 106.27510425713137 99.67181064486476 55.12488538253089 C 0.0 **** -0.24
27947 H 106.37092030808657 99.32070861447255 56.153075717034255 H 0.0 **** 0.06
27948 H 105.28041536077001 99.42692628456126 54.750018245101444 H 0.0 **** 0.06
27949 H 107.02718373005791 99.18532382804244 54.504093375031005 H 0.0 **** 0.06
27950 H 106.42052762014714 100.75148990834487 55.09443199309567 H 0.0 **** 0.06
27951 C 89.04503630870428 141.93472634474833 24.373522153827793 C 0.0 **** -0.24
27952 H 90.11934269105518 142.09198050961336 24.280815126721365 H 0.0 **** 0.06
27953 H 88.78019047725186 141.84913541848834 25.42765429610222 H 0.0 **** 0.06
27954 H 88.76723275000421 141.01770446245553 23.853010143683264 H 0.0 **** 0.06
27955 H 88.51547463680535 142.77847697932364 23.93118632813986 H 0.0 **** 0.06
27956 C 176.06013482622262 198.30044119926362 14.363066619585254 C 0.0 **** -0.24
27957 H 176.65615727039298 197.38854260933272 14.394876741004424 H 0.0 **** 0.06
27958 H 175.62341467762067 198.48448179472928 15.345105963346967 H 0.0 **** 0.06
27959 H 175.26473443984827 198.1893929884746 13.626295151222585 H 0.0 **** 0.06
27960 H 176.69820150709714 199.14031875801297 14.085562907353548 H 0.0 **** 0.06
27961 C 185.8602716992279 31.931679748529234 164.30512979582736 C 0.0 **** -0.24
27962 H 185.6477431620457 31.796871394732108 163.24501612688078 H 0.0 **** 0.06
27963 H 184.95569751643995 31.741849530804018 164.88321692304808 H 0.0 **** 0.06
27964 H 186.19681334651938 32.95342674988893 164.48178616953766 H 0.0 **** 0.06
27965 H 186.64002461211328 31.23399057159577 164.61059810749083 H 0.0 **** 0.06
27966 C 123.92236662290858 18.837541233470773 16.064763631742863 C 0.0 **** -0.24
27967 H 124.64842380452421 18.63324486632571 16.851881572882206 H 0.0 **** 0.06
27968 H 122.91424007052638 18.748163109963627 16.468685745382885 H 0.0 **** 0.06
27969 H 124.05491657860705 18.122956599711188 15.254009083784936 H 0.0 **** 0.06
27970 H 124.07458872380553 19.84881647282988 15.68609025104952 H 0.0 **** 0.06
27971 C 153.26542934161898 83.87030268833058 31.748894918474036 C 0.0 **** -0.24
27972 H 154.16266978370356 83.33048807644207 31.445773719974568 H 0.0 **** 0.06
27973 H 152.79832462907453 83.3533009567667 32.58827988462656 H 0.0 **** 0.06
27974 H 152.566737267173 83.91162937891755 30.912882844963747 H 0.0 **** 0.06
27975 H 153.53374526133044 84.88256469853698 32.04936762503155 H 0.0 **** 0.06
27976 C 51.24542118118251 184.87413748168407 2.9608996004392623 C 0.0 **** -0.24
27977 H 50.54131433824696 184.10666695033166 3.2818905867813726 H 0.0 **** 0.06
27978 H 52.162960842597386 184.4022560347014 2.611180391513841 H 0.0 **** 0.06
27979 H 51.47184051566569 185.53289944821665 3.8001264289678716 H 0.0 **** 0.06
27980 H 50.80318620155373 185.45584559515436 2.1514364454452277 H 0.0 **** 0.06
27981 C 64.57640964887571 173.34232443992474 95.58267539860606 C 0.0 **** -0.24
27982 H 65.38784523550282 173.60252034397413 96.2620766454778 H 0.0 **** 0.06
27983 H 64.444756027962 172.25968729227935 95.5724850086583 H 0.0 **** 0.06
27984 H 64.81811750289239 173.68848856709917 94.57846557881476 H 0.0 **** 0.06
27985 H 63.65509851588217 173.81710616162204 95.91899039799841 H 0.0 **** 0.06
27986 C 3.661563174800058 0.02879627992224698 48.3489615815143 C 0.0 **** -0.24
27987 H 4.422073486922933 -0.7419195936552185 48.47084993605914 H 0.0 **** 0.06
27988 H 4.1440780124686185 1.001183077984713 48.243216322660615 H 0.0 **** 0.06
27989 H 3.010147205082127 0.03822841507111008 49.22283911948715 H 0.0 **** 0.06
27990 H 3.070955858790967 -0.18231784984829602 47.456705712840716 H 0.0 **** 0.06
27991 C 3.0520620246072383 138.73146215964687 68.51713479723571 C 0.0 **** -0.24
27992 H 4.024874676674941 138.36814912205924 68.84837166493276 H 0.0 **** 0.06
27993 H 2.390641777229483 137.8832689359208 68.33739270982193 H 0.0 **** 0.06
27994 H 3.171334198857757 139.300058279968 67.59509777324695 H 0.0 **** 0.06
27995 H 2.6218557352639635 139.3716899408149 69.28641406391557 H 0.0 **** 0.06
27996 C 114.48802943272918 186.2273694730209 158.19138180216703 C 0.0 **** -0.24
27997 H 113.51010248202763 186.70772079397864 158.17751991537295 H 0.0 **** 0.06
27998 H 114.38127622185013 185.17811151893278 157.91558625006712 H 0.0 **** 0.06
27999 H 114.91497490893155 186.29941404846798 159.19159168879298 H 0.0 **** 0.06
28000 H 115.14680552564496 186.72467556616232 157.47865715910473 H 0.0 **** 0.06
28001 C 177.80325658709017 167.68232820849454 96.71464425377258 C 0.0 **** -0.24
28002 H 177.74750969748646 167.7723920448789 97.79851113963969 H 0.0 **** 0.06
28003 H 177.0451149723071 166.97877566979287 96.36945616413703 H 0.0 **** 0.06
28004 H 178.79075042857875 167.32005437432167 96.42958241033597 H 0.0 **** 0.06
28005 H 177.6289369244969 168.6566997348852 96.25914184090252 H 0.0 **** 0.06
28006 C 29.861664944612812 90.40072303054924 103.4342424439331 C 0.0 **** -0.24
28007 H 29.593176447089007 91.45711659547851 103.45534347657951 H 0.0 **** 0.06
28008 H 29.149056325729816 89.83403947381899 104.03417110756553 H 0.0 **** 0.06
28009 H 30.863676218435558 90.27229559696343 103.84213024422075 H 0.0 **** 0.06
28010 H 29.83865368313252 90.04064834288351 102.40570348846816 H 0.0 **** 0.06
28011 C 187.42555997997556 36.05916573691259 157.5697798358118 C 0.0 **** -0.24
28012 H 186.4083500299556 36.08707163433753 157.95891584710515 H 0.0 **** 0.06
28013 H 187.72535201469867 37.061756276796444 157.26381147132 H 0.0 **** 0.06
28014 H 187.46691096426218 35.389223082373746 156.7110606649668 H 0.0 **** 0.06
28015 H 188.10162691098552 35.69861195414242 158.3453313598554 H 0.0 **** 0.06
28016 C 138.26579401791543 64.4872716065479 133.3610394484797 C 0.0 **** -0.24
28017 H 137.65294291859453 63.9426162527307 132.64332589721778 H 0.0 **** 0.06
28018 H 137.68811690958327 65.3105854831788 133.78128830661328 H 0.0 **** 0.06
28019 H 139.14875907162101 64.88268415204514 132.8581743260724 H 0.0 **** 0.06
28020 H 138.57398224934585 63.81390541980643 134.16031453023524 H 0.0 **** 0.06
28021 C 30.624328339182654 142.78852338799 173.2863862908755 C 0.0 **** -0.24
28022 H 30.815298433443388 141.78617027872951 173.6681929501259 H 0.0 **** 0.06
28023 H 31.53910734333266 143.19137749553536 172.85041192539487 H 0.0 **** 0.06
28024 H 30.296044849876836 143.4317014473992 174.10294958879226 H 0.0 **** 0.06
28025 H 29.845924934749135 142.74463419794063 172.52371428295973 H 0.0 **** 0.06
28026 C 120.42080944139377 39.356107407897014 109.45725780138253 C 0.0 **** -0.24
28027 H 119.40524889583139 39.13808547705533 109.1275110984584 H 0.0 **** 0.06
28028 H 120.47167295154503 40.384022278007066 109.8180910502087 H 0.0 **** 0.06
28029 H 121.10930547558354 39.22999143046327 108.6226329638032 H 0.0 **** 0.06
28030 H 120.69526554508855 38.67382490299576 110.26164583466505 H 0.0 **** 0.06
28031 C 141.68744586933641 185.8773222904639 107.96292704486564 C 0.0 **** -0.24
28032 H 142.00242698785 186.38291126989455 107.05092357537268 H 0.0 **** 0.06
28033 H 140.80206348797535 185.27522206771698 107.75703372694136 H 0.0 **** 0.06
28034 H 141.45419913297997 186.6175521909614 108.72730607694052 H 0.0 **** 0.06
28035 H 142.4915193351704 185.2312559990118 108.31589007398975 H 0.0 **** 0.06
28036 C 114.51544625611109 153.17204478096824 41.69967111481458 C 0.0 **** -0.24
28037 H 115.46735051417676 152.7520968659424 42.023993030471615 H 0.0 **** 0.06
28038 H 114.16241008884856 152.63265681965498 40.81982691914038 H 0.0 **** 0.06
28039 H 114.64719670061959 154.22463295607935 41.452101723232516 H 0.0 **** 0.06
28040 H 113.78395744345556 153.07593018929396 42.50253897569718 H 0.0 **** 0.06
28041 C 56.30146405585796 194.1106489583321 55.975657824340814 C 0.0 **** -0.24
28042 H 55.42136946082627 194.1350261638849 55.334039627450736 H 0.0 **** 0.06
28043 H 56.494143150212025 193.08395750230972 56.288801766510105 H 0.0 **** 0.06
28044 H 56.127058900064284 194.73212267408806 56.8540187672011 H 0.0 **** 0.06
28045 H 57.162419721663824 194.49055575614997 55.426387553099204 H 0.0 **** 0.06
28046 C 174.72782757343504 58.65773235215744 50.129605291735515 C 0.0 **** -0.24
28047 H 175.74266757097038 58.76644219666247 50.51191227122956 H 0.0 **** 0.06
28048 H 174.22862396582386 57.84250824887067 50.65275067149122 H 0.0 **** 0.06
28049 H 174.76354901476878 58.43850270200255 49.06253171465909 H 0.0 **** 0.06
28050 H 174.17830801845358 59.58548556202254 50.29199046181449 H 0.0 **** 0.06
28051 C 77.15359684965601 116.83243054575718 144.0667765192335 C 0.0 **** -0.24
28052 H 77.03085912424316 115.76301197665137 143.8937734296564 H 0.0 **** 0.06
28053 H 76.69450759535977 117.38739015208097 143.24743860570558 H 0.0 **** 0.06
28054 H 78.21462236039625 117.07320365306899 144.1193390939751 H 0.0 **** 0.06
28055 H 76.6710674755537 117.10530589151944 145.00505532728434 H 0.0 **** 0.06
28056 C 84.54889466307631 90.82350663078444 128.25882633258254 C 0.0 **** -0.24
28057 H 85.45345472498661 91.42022120794547 128.3807341377967 H 0.0 **** 0.06
28058 H 84.54779450946918 90.01180363761341 128.98625792461712 H 0.0 **** 0.06
28059 H 84.52161946176315 90.40926173150558 127.25101141521537 H 0.0 **** 0.06
28060 H 83.67501540311827 91.4553740135558 128.41598014732057 H 0.0 **** 0.06
28061 C 117.72310679880809 119.32670402038977 96.97266208890574 C 0.0 **** -0.24
28062 H 118.00147031262532 120.37679124634451 96.88221730051802 H 0.0 **** 0.06
28063 H 118.21135242188109 118.89552048710908 97.8471846305954 H 0.0 **** 0.06
28064 H 118.0374714599102 118.78972778062314 96.07817506147359 H 0.0 **** 0.06
28065 H 116.64176413715495 119.24633174585497 97.08373876447376 H 0.0 **** 0.06
28066 C 152.8546933342684 21.944445006106093 90.98129913714709 C 0.0 **** -0.24
28067 H 152.83393478993264 20.98656616953457 91.5006226298321 H 0.0 **** 0.06
28068 H 151.8405518965028 22.224179804657922 90.69632147897207 H 0.0 **** 0.06
28069 H 153.4734081264702 21.859230996657857 90.08783942010731 H 0.0 **** 0.06
28070 H 153.27101742883042 22.70536110722054 91.64027985360764 H 0.0 **** 0.06
28071 C 165.47282701258564 89.35186112827697 136.26335765916753 C 0.0 **** -0.24
28072 H 165.87025756103884 88.61428470764503 135.56598281768672 H 0.0 **** 0.06
28073 H 164.52380354473735 89.73357962041987 135.88606712715833 H 0.0 **** 0.06
28074 H 166.18187629355984 90.17360432847255 136.3647722372224 H 0.0 **** 0.06
28075 H 165.31641400722629 88.88497413696439 137.23565554826925 H 0.0 **** 0.06
28076 C 88.49316675732697 92.73505761064675 199.13379869955455 C 0.0 **** -0.24
28077 H 89.48791631042437 93.16598637268544 199.01471705028283 H 0.0 **** 0.06
28078 H 88.37482859631399 91.90062415224492 198.44196520579453 H 0.0 **** 0.06
28079 H 87.74126243514715 93.49431019835777 198.92115331923227 H 0.0 **** 0.06
28080 H 88.37205683490185 92.37979141835612 200.1578363124405 H 0.0 **** 0.06
28081 C 86.8573347798366 177.2368496771456 37.31736388314954 C 0.0 **** -0.24
28082 H 86.78413120825348 178.0526773375251 38.03691454893743 H 0.0 **** 0.06
28083 H 85.85775215173726 176.95166025717938 36.98962581313776 H 0.0 **** 0.06
28084 H 87.3437852961365 176.38136958092534 37.786720247817925 H 0.0 **** 0.06
28085 H 87.44296632941109 177.5617788107298 36.4574182874926 H 0.0 **** 0.06
28086 C 108.83457071916786 172.1009107837826 45.504441930601004 C 0.0 **** -0.24
28087 H 109.27288717798265 171.15783250344134 45.8292752699291 H 0.0 **** 0.06
28088 H 109.62890915966139 172.80495198912178 45.25670193836184 H 0.0 **** 0.06
28089 H 108.22118490262739 172.51226160878403 46.307273832056666 H 0.0 **** 0.06
28090 H 108.21380421771232 171.92911623670406 44.625215416949345 H 0.0 **** 0.06
28091 C 162.1344281679195 46.95303982839211 52.730003320830704 C 0.0 **** -0.24
28092 H 162.70990229823292 47.31489583368926 51.877896847950026 H 0.0 **** 0.06
28093 H 161.97367046531738 45.87997538308146 52.629921739937515 H 0.0 **** 0.06
28094 H 161.17256382655708 47.46419176597216 52.76102513810663 H 0.0 **** 0.06
28095 H 162.6825488194626 47.155883772061884 53.65003634573577 H 0.0 **** 0.06
28096 C 76.15936787104141 59.26202820936658 108.61353852525482 C 0.0 **** -0.24
28097 H 75.757115318344 59.20557359453801 109.62563015601344 H 0.0 **** 0.06
28098 H 75.39962821750379 58.93590713048884 107.90281256132124 H 0.0 **** 0.06
28099 H 77.0332514575266 58.6166866697333 108.53393688175433 H 0.0 **** 0.06
28100 H 76.44549940907302 60.290285712986474 108.39376837678876 H 0.0 **** 0.06
28101 C 1.0439756809760752 32.471856121053676 47.03157671027651 C 0.0 **** -0.24
28102 H 0.6947134779891826 32.466496281866284 45.99940528428084 H 0.0 **** 0.06
28103 H 0.26060022122595683 32.865309096268334 47.67850816253551 H 0.0 **** 0.06
28104 H 1.9310214489391342 33.101114062813735 47.11099303519964 H 0.0 **** 0.06
28105 H 1.291112813435518 31.45538545833722 47.33648537479158 H 0.0 **** 0.06
28106 C 108.10816144586391 130.001424380978 76.91753283010837 C 0.0 **** -0.24
28107 H 107.82453122664384 130.58468390936113 77.79361781738835 H 0.0 **** 0.06
28108 H 108.89630922682821 129.29917161538103 77.18914986034015 H 0.0 **** 0.06
28109 H 108.47109667360718 130.67143457088895 76.13734370254463 H 0.0 **** 0.06
28110 H 107.24195567595365 129.45149978835016 76.55052169358893 H 0.0 **** 0.06
28111 C 141.0941125748762 50.79856422642524 182.81734513727633 C 0.0 **** -0.24
28112 H 141.69035211557093 51.70598648167845 182.71952412007045 H 0.0 **** 0.06
28113 H 140.3363512670323 50.94413487747721 183.58686619378318 H 0.0 **** 0.06
28114 H 141.7407454700674 49.96696014078759 183.095410242137 H 0.0 **** 0.06
28115 H 140.60887919515812 50.57949788662734 181.86597023845246 H 0.0 **** 0.06
28116 C 118.02979358527784 135.72127126525527 155.46249275921193 C 0.0 **** -0.24
28117 H 117.11863137189178 135.70749734461424 156.0602313087449 H 0.0 **** 0.06
28118 H 117.80746309154554 136.11047883585223 154.4685685589144 H 0.0 **** 0.06
28119 H 118.42374675737736 134.70917254677397 155.37748254940666 H 0.0 **** 0.06
28120 H 118.77069727290228 136.3596933153873 155.94471440387392 H 0.0 **** 0.06
28121 C 29.967481219974957 169.9720972999057 61.32200098925179 C 0.0 **** -0.24
28122 H 30.537096088562663 169.43218786173998 60.565910801302536 H 0.0 **** 0.06
28123 H 29.372453164917715 169.2651231830269 61.90073314596434 H 0.0 **** 0.06
28124 H 29.30703616613299 170.68975493973085 60.834938844652015 H 0.0 **** 0.06
28125 H 30.652065323589056 170.4995718776698 61.985276821392574 H 0.0 **** 0.06
28126 C 129.63091877028177 171.71758546258297 135.26233923360795 C 0.0 **** -0.24
28127 H 128.55161517806528 171.8324487699185 135.16408522075807 H 0.0 **** 0.06
28128 H 130.13234199355554 172.35352999189553 134.53115660217767 H 0.0 **** 0.06
28129 H 129.90249544503172 170.67678428876965 135.08486045268066 H 0.0 **** 0.06
28130 H 129.9374010823658 172.0071029776481 136.26685844958453 H 0.0 **** 0.06
28131 C 177.67187279963554 5.280875249222575 158.63405552478383 C 0.0 **** -0.24
28132 H 177.0340906081038 5.537411815580171 159.47959354040196 H 0.0 **** 0.06
28133 H 177.07051613538485 4.81596725146462 157.85258357633225 H 0.0 **** 0.06
28134 H 178.44647998747536 4.586334434531736 158.95964491389165 H 0.0 **** 0.06
28135 H 178.1376708441099 6.186501670560752 158.242975364683 H 0.0 **** 0.06
28136 C 178.70779121853332 21.3303251923453 156.58197892324372 C 0.0 **** -0.24
28137 H 179.52663625947568 21.12544660240121 157.27177400071952 H 0.0 **** 0.06
28138 H 178.15433710152237 22.204489012136207 156.9265683353509 H 0.0 **** 0.06
28139 H 178.04126677610284 20.469477797027366 156.54422203676847 H 0.0 **** 0.06
28140 H 179.1103671254462 21.52318007791274 155.58741252448084 H 0.0 **** 0.06
28141 C 110.87512184339198 152.39466963030836 122.77216950169145 C 0.0 **** -0.24
28142 H 110.9296847016609 151.31318076206122 122.90139577791572 H 0.0 **** 0.06
28143 H 111.7689100652475 152.74358648791355 122.25412863267363 H 0.0 **** 0.06
28144 H 110.80995157001672 152.87438568712997 123.74827041962774 H 0.0 **** 0.06
28145 H 109.99271624426626 152.64583757939363 122.18414170529331 H 0.0 **** 0.06
28146 C 198.45748468702675 47.347745306292424 175.31593256069092 C 0.0 **** -0.24
28147 H 198.1776348128013 46.32237922308808 175.558879342692 H 0.0 **** 0.06
28148 H 198.40277767705243 47.96095704986722 176.21480527635973 H 0.0 **** 0.06
28149 H 197.77438744925155 47.74146116577137 174.56396404658432 H 0.0 **** 0.06
28150 H 199.47550713363938 47.36338380948547 174.92623854505982 H 0.0 **** 0.06
28151 C 155.05402362675278 104.37136760432847 147.11618174918476 C 0.0 **** -0.24
28152 H 155.15619460152266 105.19727988264242 146.41259616662867 H 0.0 **** 0.06
28153 H 156.0235086076741 103.89474477444088 147.25936422249643 H 0.0 **** 0.06
28154 H 154.3450384842161 103.64310134239344 146.7210184599678 H 0.0 **** 0.06
28155 H 154.69074214758342 104.75083818842035 148.07112903598713 H 0.0 **** 0.06
28156 C 152.4805419718907 65.17872794484441 119.55887170515518 C 0.0 **** -0.24
28157 H 153.23246326077657 65.174491327725 120.34803018752558 H 0.0 **** 0.06
28158 H 152.83899562291896 64.59035422549314 118.71313766393726 H 0.0 **** 0.06
28159 H 152.2962655483199 66.2035103090661 119.23713582237156 H 0.0 **** 0.06
28160 H 151.55467639581713 64.74414886934694 119.93757300532073 H 0.0 **** 0.06
28161 C 186.41188165341646 116.57751450951753 178.6466103340712 C 0.0 **** -0.24
28162 H 187.09211767516257 116.28792010417828 177.84561800014 H 0.0 **** 0.06
28163 H 186.8843760388694 116.38556727620426 179.61028507794092 H 0.0 **** 0.06
28164 H 185.4924721124066 115.9980606615826 178.56967534518404 H 0.0 **** 0.06
28165 H 186.1801627111279 117.63871265148612 178.56023614714405 H 0.0 **** 0.06
28166 C 156.6117975004554 0.8216345877827109 43.90671704056659 C 0.0 **** -0.24
28167 H 155.59728331711676 0.7563263815667653 43.513115085091826 H 0.0 **** 0.06
28168 H 157.31906541308092 0.5002901746938448 43.14128802509708 H 0.0 **** 0.06
28169 H 156.70445032472992 0.1774284792622609 44.78106458332624 H 0.0 **** 0.06
28170 H 156.82508154588265 1.8520471929234645 44.189643610297864 H 0.0 **** 0.06
28171 C 175.56974602949907 195.58094200924447 154.6813679644475 C 0.0 **** -0.24
28172 H 175.8339002890479 195.4652887269923 153.63110824102037 H 0.0 **** 0.06
28173 H 175.87862642915925 196.5675776355601 155.02690627664992 H 0.0 **** 0.06
28174 H 176.07373649733807 194.81436586331284 155.26993937241326 H 0.0 **** 0.06
28175 H 174.49041966422087 195.47607586468098 154.79822002296575 H 0.0 **** 0.06
28176 C 97.71924041632755 22.36885796883621 106.8169905015607 C 0.0 **** -0.24
28177 H 97.83299447450867 23.19507458585622 107.51939338917722 H 0.0 **** 0.06
28178 H 96.86998806622915 22.563293761508703 106.16177003786709 H 0.0 **** 0.06
28179 H 97.5494542810888 21.444547907567085 107.36833453282694 H 0.0 **** 0.06
28180 H 98.62551777262027 22.273930466771844 106.21857525050964 H 0.0 **** 0.06
28181 C 166.7612071362682 128.8447152771926 70.52930467771228 C 0.0 **** -0.24
28182 H 166.32367574267016 129.33912580116368 69.66197071859747 H 0.0 **** 0.06
28183 H 166.08713539228376 128.062849436363 70.87969842912965 H 0.0 **** 0.06
28184 H 166.9156268644719 129.57440174705013 71.32407438160199 H 0.0 **** 0.06
28185 H 167.71747879773778 128.40268837548865 70.25111878458488 H 0.0 **** 0.06
28186 C 78.61416640646567 30.952700158410636 94.45499010158946 C 0.0 **** -0.24
28187 H 77.71707101059651 30.861058144928492 93.84377226356571 H 0.0 **** 0.06
28188 H 78.48646638784214 31.765268721033152 95.16931194160921 H 0.0 **** 0.06
28189 H 79.46998494821304 31.163117866194895 93.81309547803315 H 0.0 **** 0.06
28190 H 78.78384019061104 30.019502475828475 94.99233876006667 H 0.0 **** 0.06
28191 C 166.91729395311958 148.2434390940982 89.39652849480296 C 0.0 **** -0.24
28192 H 167.36942883588557 148.6593434715045 88.49573978786376 H 0.0 **** 0.06
28193 H 166.45874330126858 149.0454586374559 89.97682469543841 H 0.0 **** 0.06
28194 H 167.6845038743715 147.75373269652886 89.99592089919028 H 0.0 **** 0.06
28195 H 166.15483796727028 147.51546321797355 89.11805283763638 H 0.0 **** 0.06
28196 C 69.75145143847021 83.52202065195826 81.14605487969115 C 0.0 **** -0.24
28197 H 68.90104339941479 82.84067566357419 81.12556462149217 H 0.0 **** 0.06
28198 H 70.66869385428959 82.95383527232184 81.3013237146034 H 0.0 **** 0.06
28199 H 69.62394376709204 84.23550437982237 81.96022282795067 H 0.0 **** 0.06
28200 H 69.81024819239337 84.05852190858513 80.19940446304557 H 0.0 **** 0.06
28201 C 71.91358044756996 147.69338023205975 57.4103684555115 C 0.0 **** -0.24
28202 H 72.56384539317992 148.49113691122926 57.04882799567622 H 0.0 **** 0.06
28203 H 70.91065027043723 147.83138122397588 57.005969548594294 H 0.0 **** 0.06
28204 H 71.87501855063047 147.72227918901768 58.49865172839611 H 0.0 **** 0.06
28205 H 72.30769320536288 146.73053073841587 57.085302818432865 H 0.0 **** 0.06
28206 C 161.00061745902298 101.98261995933814 20.704463819974478 C 0.0 **** -0.24
28207 H 160.82615297920074 101.49257761219855 19.746679229412678 H 0.0 **** 0.06
28208 H 161.56871740088673 102.8994883289985 20.54440585986896 H 0.0 **** 0.06
28209 H 161.56424432629944 101.3156576070021 21.356416767351334 H 0.0 **** 0.06
28210 H 160.0446121703548 102.22364396168217 21.168447638390603 H 0.0 **** 0.06
28211 C 100.39439417441469 18.56318953457854 148.1271191491989 C 0.0 **** -0.24
28212 H 99.85401708877563 18.349342639335077 147.20409974114577 H 0.0 **** 0.06
28213 H 101.45251529706997 18.342022927799903 147.9871523507117 H 0.0 **** 0.06
28214 H 99.99669111973185 17.94457107695675 148.9314692973052 H 0.0 **** 0.06
28215 H 100.27266450082766 19.615073230043237 148.38291052894365 H 0.0 **** 0.06
28216 C 5.699449498238117 30.191293588146834 129.07296524573977 C 0.0 **** -0.24
28217 H 5.666871837749767 30.127384949117925 130.16045872040095 H 0.0 **** 0.06
28218 H 4.937798836713327 29.536292664472967 128.64824678269886 H 0.0 **** 0.06
28219 H 6.683140006315654 29.882277024088523 128.71958099596998 H 0.0 **** 0.06
28220 H 5.508597456306234 31.21935485991213 128.76379826889507 H 0.0 **** 0.06
28221 C 48.61214004752283 43.29500264693132 40.23451151154865 C 0.0 **** -0.24
28222 H 47.935528560030576 43.56857152838394 39.42471607372579 H 0.0 **** 0.06
28223 H 48.03205521221294 42.963516504388394 41.0962320124479 H 0.0 **** 0.06
28224 H 49.21336257137679 44.16079121454109 40.51214493196119 H 0.0 **** 0.06
28225 H 49.265970052260045 42.48858339654812 39.904517618307295 H 0.0 **** 0.06
28226 C 83.90360617854259 185.677016907809 163.6906395456547 C 0.0 **** -0.24
28227 H 84.78775571226382 185.83462687172556 164.30901596982574 H 0.0 **** 0.06
28228 H 83.14975255685107 186.42555323207165 163.93764926889006 H 0.0 **** 0.06
28229 H 83.50210968614167 184.68128538914738 163.87892388463507 H 0.0 **** 0.06
28230 H 84.1746921399156 185.76704709314106 162.6391574344072 H 0.0 **** 0.06
28231 C 15.210642479883305 125.62005908177034 70.46383656868154 C 0.0 **** -0.24
28232 H 15.515268751671144 124.80788779973574 71.12317207111371 H 0.0 **** 0.06
28233 H 14.135349917269735 125.56694361521832 70.29519398314437 H 0.0 **** 0.06
28234 H 15.732993616223965 125.52998399631934 69.51111548497403 H 0.0 **** 0.06
28235 H 15.459469583377384 126.57572372763394 70.9250608481717 H 0.0 **** 0.06
28236 C 47.42847753301055 49.92332538359386 43.48390451869433 C 0.0 **** -0.24
28237 H 48.438680854310064 50.20933338699933 43.77734848411596 H 0.0 **** 0.06
28238 H 47.01685525815492 50.679479995630345 42.81592474902571 H 0.0 **** 0.06
28239 H 46.80188737658193 49.843475640187535 44.37199768272585 H 0.0 **** 0.06
28240 H 47.457832862221494 48.962049876400556 42.97140150915837 H 0.0 **** 0.06
28241 C 94.72811808378407 72.2989021659488 123.88760250716933 C 0.0 **** -0.24
28242 H 93.89026662776459 72.89985585673196 124.24013515354514 H 0.0 **** 0.06
28243 H 95.48205572244316 72.23011382650353 124.67282280668849 H 0.0 **** 0.06
28244 H 95.16529362022277 72.76690828951942 123.00533128427037 H 0.0 **** 0.06
28245 H 94.3759045676471 71.29967862549793 123.6320684956282 H 0.0 **** 0.06
28246 C 173.5201383467256 130.1293957695727 118.65250146374291 C 0.0 **** -0.24
28247 H 174.33372799161242 129.66345251358928 118.09580722776144 H 0.0 **** 0.06
28248 H 173.1187698226126 129.41660050571087 119.37321563234306 H 0.0 **** 0.06
28249 H 172.73359151699975 130.43005958634953 117.9612996057939 H 0.0 **** 0.06
28250 H 173.89665300783946 131.00637416701883 119.17976543855181 H 0.0 **** 0.06
28251 C 129.1473852146023 139.96568826068764 20.804959956072707 C 0.0 **** -0.24
28252 H 128.31767084843716 140.64734389211935 20.992468238616624 H 0.0 **** 0.06
28253 H 129.62910201994225 140.2302344737084 19.864160890312377 H 0.0 **** 0.06
28254 H 128.7715718134661 138.94418970626535 20.74810338740008 H 0.0 **** 0.06
28255 H 129.86956024995982 140.04219024325818 21.618249180769226 H 0.0 **** 0.06
28256 C 129.12924147709424 95.7424422267274 92.29765006154645 C 0.0 **** -0.24
28257 H 128.15951703719733 95.37236147849495 92.62977868524945 H 0.0 **** 0.06
28258 H 129.91898874741338 95.12954757250623 92.73197030218535 H 0.0 **** 0.06
28259 H 129.2518494558584 96.77662346286195 92.61921519304747 H 0.0 **** 0.06
28260 H 129.1842819389045 95.6904794048215 91.20957188036652 H 0.0 **** 0.06
28261 C 127.11459118934971 15.021394560723536 4.7580934317953165 C 0.0 **** -0.24
28262 H 126.96751520447816 14.342488846017773 5.597854921623451 H 0.0 **** 0.06
28263 H 128.13501007198892 14.924572474143503 4.387220850675391 H 0.0 **** 0.06
28264 H 126.9438085730213 16.046548135855687 5.0862795397128195 H 0.0 **** 0.06
28265 H 126.4126377614094 14.773191446123974 3.9627895564067046 H 0.0 **** 0.06
28266 C 168.10932832093465 101.34800463890898 46.69191280164088 C 0.0 **** -0.24
28267 H 168.77970035795 102.19646442213852 46.556820247244374 H 0.0 **** 0.06
28268 H 168.6682704978956 100.41996936793367 46.566525845531416 H 0.0 **** 0.06
28269 H 167.3111338333391 101.39445026546619 45.951794552126856 H 0.0 **** 0.06
28270 H 167.67901011680533 101.38059191894976 47.69276193666967 H 0.0 **** 0.06
28271 C 88.75796539407304 126.88150835680239 95.16963133726733 C 0.0 **** -0.24
28272 H 89.65495213603413 127.44903895702083 94.91888142953212 H 0.0 **** 0.06
28273 H 87.9265331493192 127.56860031875314 95.33074237698145 H 0.0 **** 0.06
28274 H 88.93515638165417 126.3049222894212 96.07659192456731 H 0.0 **** 0.06
28275 H 88.51710784437262 126.20496017574612 94.34944240227037 H 0.0 **** 0.06
28276 C 79.70794065752023 135.16117821655106 28.412454840860164 C 0.0 **** -0.24
28277 H 78.63788942485371 135.2682115873811 28.590108711350297 H 0.0 **** 0.06
28278 H 79.89693705175955 134.2189661387571 27.897579655907407 H 0.0 **** 0.06
28279 H 80.23739811212442 135.1666902945529 29.36557818973597 H 0.0 **** 0.06
28280 H 80.05892439716479 135.98870442655112 27.796758124670646 H 0.0 **** 0.06
28281 C 3.60341099775399 48.26682427148728 126.62730254804694 C 0.0 **** -0.24
28282 H 4.675940087783054 48.24589374486885 126.43191584332132 H 0.0 **** 0.06
28283 H 3.197162172274396 47.260433257960926 126.53202570472871 H 0.0 **** 0.06
28284 H 3.116733901520213 48.92616881663753 125.90796891391938 H 0.0 **** 0.06
28285 H 3.425822144875035 48.63721845254844 127.6376158963269 H 0.0 **** 0.06
28286 C 11.618716680596435 138.34029676890503 110.36030791832817 C 0.0 **** -0.24
28287 H 11.173809182418552 137.61072238960753 111.03724604943827 H 0.0 **** 0.06
28288 H 11.781093051215095 137.8792177128322 109.38553116271024 H 0.0 **** 0.06
28289 H 12.572397995297507 138.67842306893556 110.76591763597935 H 0.0 **** 0.06
28290 H 10.94756649345456 139.19282390424485 110.25253682518496 H 0.0 **** 0.06
28291 C 82.13382830372896 13.46880998337815 42.583010378876736 C 0.0 **** -0.24
28292 H 81.0760256463968 13.667058244710574 42.75616594521158 H 0.0 **** 0.06
28293 H 82.68505604782968 14.40966914184986 42.58560294696922 H 0.0 **** 0.06
28294 H 82.2580634819044 12.978330757167555 41.617730406896825 H 0.0 **** 0.06
28295 H 82.51531455858125 12.821217681324526 43.37209663423445 H 0.0 **** 0.06
28296 C 28.868986916337207 173.0754783003789 67.06521960782925 C 0.0 **** -0.24
28297 H 29.528937243649793 172.4586836538098 67.67561097523867 H 0.0 **** 0.06
28298 H 29.444937111057882 173.54078569786128 66.26530831207816 H 0.0 **** 0.06
28299 H 28.41868851345933 173.85053400215185 67.68609375650465 H 0.0 **** 0.06
28300 H 28.084888066671994 172.45271007787915 66.63531449776463 H 0.0 **** 0.06
28301 C 57.240545490877594 8.159990342788738 28.49136673779647 C 0.0 **** -0.24
28302 H 56.47106082103261 7.893723378685131 29.216561157612688 H 0.0 **** 0.06
28303 H 57.95946362189227 8.835273342320207 28.955411213707762 H 0.0 **** 0.06
28304 H 56.77837360145486 8.652679446751172 27.636036234307724 H 0.0 **** 0.06
28305 H 57.75224599359831 7.257395446994671 28.15709628566698 H 0.0 **** 0.06
28306 C 129.76443137194624 127.19277999263079 129.10265861975796 C 0.0 **** -0.24
28307 H 130.3355071785826 126.32837009859793 128.76427476265758 H 0.0 **** 0.06
28308 H 130.29298181616963 128.1060514433163 128.82870355809305 H 0.0 **** 0.06
28309 H 129.6493872900619 127.14984822176098 130.1858494665748 H 0.0 **** 0.06
28310 H 128.78146216425827 127.18532370335527 128.6315454426753 H 0.0 **** 0.06
28311 C 10.569470849075685 32.53103128757735 107.45379821429106 C 0.0 **** -0.24
28312 H 10.403744049778652 31.99835489078268 106.51777409580816 H 0.0 **** 0.06
28313 H 11.582875209386316 32.932111397356564 107.46869887884148 H 0.0 **** 0.06
28314 H 10.43689611377522 31.845195176734634 108.29063717973287 H 0.0 **** 0.06
28315 H 9.853869983820744 33.349162938233235 107.5369588498672 H 0.0 **** 0.06
28316 C 87.12544546116774 4.269393404639487 70.66526747556964 C 0.0 **** -0.24
28317 H 87.2664947326002 5.304067906380823 70.97915356889479 H 0.0 **** 0.06
28318 H 86.62349109910139 3.7146736068137614 71.45896041333702 H 0.0 **** 0.06
28319 H 88.09558526220943 3.816512717972273 70.4633058210436 H 0.0 **** 0.06
28320 H 86.51573459446021 4.243517847284636 69.76286525505878 H 0.0 **** 0.06
28321 C 113.6234999830177 90.6466316226271 40.363498828344916 C 0.0 **** -0.24
28322 H 114.53586437247361 90.1300541125969 40.662981044276535 H 0.0 **** 0.06
28323 H 113.27122283477641 91.26651186000706 41.18794772530529 H 0.0 **** 0.06
28324 H 112.85814578107525 89.912584792525 40.10741110142807 H 0.0 **** 0.06
28325 H 113.82820294342136 91.27500857756874 39.497097207888686 H 0.0 **** 0.06
28326 C 190.4270614608878 167.96686575802786 134.81106461349222 C 0.0 **** -0.24
28327 H 190.44717333429674 167.17222832793146 134.0647171297076 H 0.0 **** 0.06
28328 H 191.17313797523667 168.72119182164255 134.55777082472005 H 0.0 **** 0.06
28329 H 190.6505362297101 167.54950354420924 135.79247302748445 H 0.0 **** 0.06
28330 H 189.4386272050354 168.42538836405356 134.82735605813394 H 0.0 **** 0.06
28331 C 192.94190957923877 114.64881116147285 24.789156166032797 C 0.0 **** -0.24
28332 H 193.4618629361139 114.2484960578044 25.65957848291916 H 0.0 **** 0.06
28333 H 193.47478980853887 114.35870530503476 23.88352547989834 H 0.0 **** 0.06
28334 H 192.90374443440118 115.73547060736678 24.857268773156648 H 0.0 **** 0.06
28335 H 191.9276674222824 114.25068182159907 24.757366854403244 H 0.0 **** 0.06
28336 C 164.57951770256923 39.241775671821074 145.77378243920188 C 0.0 **** -0.24
28337 H 165.28008661366817 38.44092411184107 145.53926454730995 H 0.0 **** 0.06
28338 H 165.12972830488275 40.16484765855549 145.95411564661697 H 0.0 **** 0.06
28339 H 164.0111797525168 38.97650734217004 146.66625675743254 H 0.0 **** 0.06
28340 H 163.89517381706122 39.38265605243129 144.93713086996686 H 0.0 **** 0.06
28341 C 73.48191485323116 46.94639741668753 131.3372238305837 C 0.0 **** -0.24
28342 H 73.4446557186493 46.38723680218429 130.40320680161162 H 0.0 **** 0.06
28343 H 74.49878483449817 46.93202120832554 131.72938635613502 H 0.0 **** 0.06
28344 H 72.80696300249156 46.48967642661296 132.06085952087835 H 0.0 **** 0.06
28345 H 73.17629944818049 47.97724770979791 131.15629955216718 H 0.0 **** 0.06
28346 C 174.51190348024 70.70643237860128 136.31041558322647 C 0.0 **** -0.24
28347 H 175.5442268925912 70.46549661337184 136.5607872579056 H 0.0 **** 0.06
28348 H 174.310549784378 70.41461265591971 135.28009446686272 H 0.0 **** 0.06
28349 H 174.35062195525748 71.77901662612862 136.4227766307038 H 0.0 **** 0.06
28350 H 173.84016177627535 70.16635322861146 136.97885279975307 H 0.0 **** 0.06
28351 C 79.06368946022445 73.18462927955416 0.3684191367131291 C 0.0 **** -0.24
28352 H 79.98067600847017 73.32744675375058 -0.20299972435518043 H 0.0 **** 0.06
28353 H 79.12650969423049 73.74250132292705 1.3025390840930129 H 0.0 **** 0.06
28354 H 78.93337963376413 72.12407258068218 0.5864066257881859 H 0.0 **** 0.06
28355 H 78.21386377123011 73.54282196865934 -0.21256621335666637 H 0.0 **** 0.06
28356 C 118.61787509490597 146.23059289265595 65.57472437232116 C 0.0 **** -0.24
28357 H 119.61499125672967 146.03101514363232 65.18279867134916 H 0.0 **** 0.06
28358 H 118.19954610518062 147.1048492501785 65.07538443584633 H 0.0 **** 0.06
28359 H 118.68075722358304 146.41935992794805 66.64618669837955 H 0.0 **** 0.06
28360 H 117.977280764514 145.36764938295832 65.39529732210525 H 0.0 **** 0.06
28361 C 171.29936782921362 123.76677899911618 57.75819674969232 C 0.0 **** -0.24
28362 H 172.03329269661072 124.24235424069434 58.408354537018496 H 0.0 **** 0.06
28363 H 170.90791075974616 122.87403482473019 58.245397810085805 H 0.0 **** 0.06
28364 H 171.77293036390972 123.48978328690777 56.816492137375576 H 0.0 **** 0.06
28365 H 170.48268503401405 124.462006766511 57.56320892754809 H 0.0 **** 0.06
28366 C 70.65719864577922 38.32838440625119 10.81567056526864 C 0.0 **** -0.24
28367 H 70.6523413589207 38.73860954196749 11.825307340492209 H 0.0 **** 0.06
28368 H 70.78804837022507 37.24731722915658 10.864124586196944 H 0.0 **** 0.06
28369 H 71.47708043627473 38.76854184712127 10.24950281242559 H 0.0 **** 0.06
28370 H 69.71115278228164 38.55920578550143 10.325735465451736 H 0.0 **** 0.06
28371 C 62.73531241245483 185.7815881292647 44.001756275403636 C 0.0 **** -0.24
28372 H 61.66264822985248 185.80556949581347 44.190322174556925 H 0.0 **** 0.06
28373 H 62.91854359447673 185.8906549074856 42.9326414722925 H 0.0 **** 0.06
28374 H 63.14231605831907 184.83069869089852 44.34512340085574 H 0.0 **** 0.06
28375 H 63.21709350441621 186.59868784152457 44.53876532829251 H 0.0 **** 0.06
28376 C 81.65809621243943 168.48788708952299 108.0011908905899 C 0.0 **** -0.24
28377 H 82.19676996711507 168.40925256118302 107.05650316751479 H 0.0 **** 0.06
28378 H 81.91136442491859 169.43060269782686 108.48715096761998 H 0.0 **** 0.06
28379 H 81.93860164529713 167.6579796817268 108.64880578507359 H 0.0 **** 0.06
28380 H 80.5848553224962 168.45406789298096 107.81024334390963 H 0.0 **** 0.06
28381 C 16.467919306970884 53.602644748861835 37.843689538327 C 0.0 **** -0.24
28382 H 16.219258692721297 54.26318421273851 38.67483285695931 H 0.0 **** 0.06
28383 H 15.992408346652724 53.968918763150825 36.93402952064645 H 0.0 **** 0.06
28384 H 16.111703448335504 52.595334606705194 38.06161668787644 H 0.0 **** 0.06
28385 H 17.549112348991088 53.58397830819827 37.70722031491351 H 0.0 **** 0.06
28386 C 34.4595064290985 193.73300952989257 23.77651777955458 C 0.0 **** -0.24
28387 H 33.54505281205252 193.82986775512026 24.363070234399856 H 0.0 **** 0.06
28388 H 35.08083809905884 194.6153003145727 23.924228885221424 H 0.0 **** 0.06
28389 H 34.204981560940894 193.64000226092062 22.720180500443945 H 0.0 **** 0.06
28390 H 35.0040831661521 192.8456404498395 24.098329780012307 H 0.0 **** 0.06
28391 C 96.5210445996114 126.29252742982479 12.44938831920419 C 0.0 **** -0.24
28392 H 96.2993730578761 126.45691753535684 11.39478303352604 H 0.0 **** 0.06
28393 H 96.30824620362546 125.25455065976053 12.707480890771848 H 0.0 **** 0.06
28394 H 95.90172643744211 126.95258743572157 13.057582784220358 H 0.0 **** 0.06
28395 H 97.57357442284598 126.50629941172022 12.637109408697654 H 0.0 **** 0.06
28396 C 68.12412156585953 94.94766697653836 74.59525019677457 C 0.0 **** -0.24
28397 H 67.13376021367125 95.07919545013516 74.15723492821263 H 0.0 **** 0.06
28398 H 68.82944105859963 94.65380050321426 73.81743620420691 H 0.0 **** 0.06
28399 H 68.08155530171436 94.17205242266286 75.36030828104654 H 0.0 **** 0.06
28400 H 68.44875054561817 95.88563459321111 75.04566828771195 H 0.0 **** 0.06
28401 C 102.00585363828606 176.22204188200058 85.14197997899112 C 0.0 **** -0.24
28402 H 101.66786045036926 175.31388060333293 84.64433919726719 H 0.0 **** 0.06
28403 H 102.75975616205298 175.96827244983825 85.88778341254317 H 0.0 **** 0.06
28404 H 101.15950489490481 176.70440905404917 85.63041153642507 H 0.0 **** 0.06
28405 H 102.43563492116817 176.90055593480125 84.40606804119705 H 0.0 **** 0.06
28406 C 55.941725299673294 113.52774332974579 157.03219122728845 C 0.0 **** -0.24
28407 H 55.8102294369599 113.86290679573821 156.0033695851011 H 0.0 **** 0.06
28408 H 56.88797236287337 113.90634251738157 157.41974490162374 H 0.0 **** 0.06
28409 H 55.94629218567269 112.43769187481897 157.06169839840646 H 0.0 **** 0.06
28410 H 55.121138489224734 113.90345142023449 157.64418258355082 H 0.0 **** 0.06
28411 C 25.884003258667974 63.55896258593893 17.983497883241824 C 0.0 **** -0.24
28412 H 26.883194894306655 63.14348601545743 17.855897102068127 H 0.0 **** 0.06
28413 H 25.17935348612602 63.00630955818514 17.36300615343464 H 0.0 **** 0.06
28414 H 25.885809713532524 64.60733219090417 17.685745330637815 H 0.0 **** 0.06
28415 H 25.58859796876834 63.47856359562206 19.029635254731375 H 0.0 **** 0.06
28416 C 140.91692172373234 158.01307247147437 82.06785002023545 C 0.0 **** -0.24
28417 H 141.8928571516774 158.4956597296717 82.0159245002541 H 0.0 **** 0.06
28418 H 140.8277120573759 157.28774407031432 81.25946953058207 H 0.0 **** 0.06
28419 H 140.13497170007707 158.7655935367518 81.9709590095153 H 0.0 **** 0.06
28420 H 140.8144841089428 157.50383124121294 83.02654476018003 H 0.0 **** 0.06
28421 C 67.52410381506016 172.44927908045764 34.66404761650347 C 0.0 **** -0.24
28422 H 67.50131066920022 173.02394576622547 35.58973997669216 H 0.0 **** 0.06
28423 H 66.68563423295791 171.75290405665197 34.647852825920324 H 0.0 **** 0.06
28424 H 68.45972492594692 171.89357464169578 34.604177849975656 H 0.0 **** 0.06
28425 H 67.44981768961964 173.12787085897878 33.813642139310105 H 0.0 **** 0.06
28426 C 163.55126234328776 20.418485520115553 11.308987890151244 C 0.0 **** -0.24
28427 H 163.6383193685596 20.88288509873155 12.291604195090763 H 0.0 **** 0.06
28428 H 162.51305458395777 20.137357003265066 11.131204041748795 H 0.0 **** 0.06
28429 H 164.18099535724255 19.530136009331727 11.270476321633907 H 0.0 **** 0.06
28430 H 163.87352934258908 21.125127167686514 10.544021713618513 H 0.0 **** 0.06
28431 C 120.64397851138636 167.4511554113836 180.79500145422057 C 0.0 **** -0.24
28432 H 121.29007873915481 166.59189241028707 180.97064951469648 H 0.0 **** 0.06
28433 H 120.02541206294623 167.26728241582012 179.9167116690442 H 0.0 **** 0.06
28434 H 121.25605756656955 168.3380470042979 180.6288291619887 H 0.0 **** 0.06
28435 H 120.00537745572765 167.6087468018386 181.66421795743577 H 0.0 **** 0.06
28436 C 162.5481668137391 175.5373674955979 13.986150971413053 C 0.0 **** -0.24
28437 H 162.70602762004893 174.46403091886071 13.887829002517122 H 0.0 **** 0.06
28438 H 162.1398222333405 175.75594515283336 14.973230101900867 H 0.0 **** 0.06
28439 H 161.84922035295102 175.87371110026513 13.22025312565367 H 0.0 **** 0.06
28440 H 163.4987102851261 176.05665241326483 13.863224286301488 H 0.0 **** 0.06
28441 C 12.82410492069829 50.72830964970815 44.6395061915926 C 0.0 **** -0.24
28442 H 12.036298396940083 51.34866353976862 45.067054572825896 H 0.0 **** 0.06
28443 H 13.65030805330511 50.6512287803032 45.34713153821417 H 0.0 **** 0.06
28444 H 13.178590840012163 51.18029287301373 43.71357878425965 H 0.0 **** 0.06
28445 H 12.429595429673697 49.73364750832583 44.430249930157686 H 0.0 **** 0.06
28446 C 44.13340558456544 11.77303798030573 75.72449758909531 C 0.0 **** -0.24
28447 H 43.23846459970696 11.21916696341782 76.0078546254376 H 0.0 **** 0.06
28448 H 43.95411631445867 12.840999437955531 75.84914255505078 H 0.0 **** 0.06
28449 H 44.37491632576402 11.56452936893217 74.6818392455777 H 0.0 **** 0.06
28450 H 44.9661250983321 11.467456150917485 76.35915393031516 H 0.0 **** 0.06
28451 C 79.0819942769019 144.88454785675782 24.085169737810702 C 0.0 **** -0.24
28452 H 78.24336334525202 144.84063075338779 23.38977262385623 H 0.0 **** 0.06
28453 H 79.91024750307722 144.29308880813846 23.693281363901974 H 0.0 **** 0.06
28454 H 78.77424890488584 144.4836949302841 25.05133660551178 H 0.0 **** 0.06
28455 H 79.3990523698005 145.91986750464994 24.20609141359381 H 0.0 **** 0.06
28456 C 15.82125865632932 124.70172037959912 94.18390521722014 C 0.0 **** -0.24
28457 H 16.206701382572106 124.95870276109414 93.1977385874253 H 0.0 **** 0.06
28458 H 16.419377716729457 125.19848763816614 94.94893175219389 H 0.0 **** 0.06
28459 H 15.873490833032179 123.6223491214866 94.32513255471625 H 0.0 **** 0.06
28460 H 14.78444044586729 125.02846331563015 94.26511937774882 H 0.0 **** 0.06
28461 C 46.85216728068096 30.151981351026564 140.09766691731272 C 0.0 **** -0.24
28462 H 47.16954762233647 29.22866395498778 139.61368202712356 H 0.0 **** 0.06
28463 H 47.12277747757082 30.120782467190764 141.15302298550597 H 0.0 **** 0.06
28464 H 45.771855467514314 30.258640414842546 140.0018759862609 H 0.0 **** 0.06
28465 H 47.34437283503365 30.999511730018128 139.62114868956755 H 0.0 **** 0.06
28466 C 35.61834456126803 93.27932989669821 91.02559398161901 C 0.0 **** -0.24
28467 H 36.415914611827944 92.57493862271366 90.78848084684205 H 0.0 **** 0.06
28468 H 35.87745745672869 93.82908840976285 91.93071097850108 H 0.0 **** 0.06
28469 H 34.68833561089616 92.73358456817866 91.18442744275987 H 0.0 **** 0.06
28470 H 35.49422323959102 93.97815422219347 90.19849233328821 H 0.0 **** 0.06
28471 C 138.77817887302172 128.74754444641638 132.72222211136253 C 0.0 **** -0.24
28472 H 139.76681610367177 128.89206485596284 133.15691388864593 H 0.0 **** 0.06
28473 H 138.09925443884384 129.51362330208582 133.09903707750482 H 0.0 **** 0.06
28474 H 138.4016028951864 127.76171023881176 132.99653060216423 H 0.0 **** 0.06
28475 H 138.84358528402345 128.8220756570105 131.6370254614263 H 0.0 **** 0.06
28476 C 101.36527631010398 90.75489546144038 115.08871195282319 C 0.0 **** -0.24
28477 H 101.67535695892931 91.31784394735314 115.96976967066632 H 0.0 **** 0.06
28478 H 101.93841016172803 89.8297825087862 115.02906054571338 H 0.0 **** 0.06
28479 H 101.54327198279194 91.35201793161121 114.19503978015481 H 0.0 **** 0.06
28480 H 100.3041751330922 90.52008105344345 115.1639724257088 H 0.0 **** 0.06
28481 C 160.6950852582707 174.88818667772904 122.99855665984907 C 0.0 **** -0.24
28482 H 159.93591947231172 174.30607226057043 122.47550330536521 H 0.0 **** 0.06
28483 H 160.2104548245638 175.64068237637815 123.62169731578118 H 0.0 **** 0.06
28484 H 161.34050735608676 175.38008881062086 122.27087727398285 H 0.0 **** 0.06
28485 H 161.29181864265036 174.22608900953432 123.62562573015884 H 0.0 **** 0.06
28486 C 107.71179894922736 36.29562070874073 142.47470846895513 C 0.0 **** -0.24
28487 H 107.75987812731648 37.369058850916616 142.65903871541008 H 0.0 **** 0.06
28488 H 108.64620087905223 35.96259582143347 142.02384804410016 H 0.0 **** 0.06
28489 H 106.88384563627156 36.08043347708215 141.79933342810432 H 0.0 **** 0.06
28490 H 107.55599716571561 35.77278220478121 143.4185312238063 H 0.0 **** 0.06
28491 C 195.5601024027945 0.09842165239661682 108.42419142241855 C 0.0 **** -0.24
28492 H 194.74125546280882 -0.4481162186281935 107.95675723642023 H 0.0 **** 0.06
28493 H 195.20443967791397 1.0776612067697542 108.74693069067334 H 0.0 **** 0.06
28494 H 196.36940701187058 0.22396258635468058 107.70527752319566 H 0.0 **** 0.06
28495 H 195.92299043889628 -0.4594288021977846 109.28710903907299 H 0.0 **** 0.06
28496 C 98.94389601827385 11.078814878095066 150.47301435565942 C 0.0 **** -0.24
28497 H 99.40906133306183 11.231210362864651 149.4989771213263 H 0.0 **** 0.06
28498 H 97.87803488789567 10.892294673372781 150.3407874623381 H 0.0 **** 0.06
28499 H 99.08410198084246 11.970078497827828 151.08461318631515 H 0.0 **** 0.06
28500 H 99.40491414484248 10.223332182082856 150.96627323016727 H 0.0 **** 0.06
28501 C 55.94748149028936 162.0706796655199 184.44537229540248 C 0.0 **** -0.24
28502 H 55.93747560876244 161.0026502364011 184.2289267061177 H 0.0 **** 0.06
28503 H 56.494147645225496 162.59535533141036 183.66255033744994 H 0.0 **** 0.06
28504 H 56.43324441151094 162.24222829728598 185.40572489957106 H 0.0 **** 0.06
28505 H 54.92318001327277 162.44199898481912 184.48539906125612 H 0.0 **** 0.06
28506 C 78.45847146386848 136.31052662659403 108.7378453473462 C 0.0 **** -0.24
28507 H 78.91988752598249 137.2185518413653 109.12673109029294 H 0.0 **** 0.06
28508 H 77.70589405174789 136.57534082824895 107.9954570731229 H 0.0 **** 0.06
28509 H 77.98736315538567 135.7640111647662 109.55505248235386 H 0.0 **** 0.06
28510 H 79.22159701118164 135.6847963990905 108.27509729245946 H 0.0 **** 0.06
28511 C 154.14988297204033 92.91601259715068 74.66717439512527 C 0.0 **** -0.24
28512 H 155.22956208072932 93.05834761649112 74.62822014639858 H 0.0 **** 0.06
28513 H 153.80910068257256 92.46856703947134 73.73338288153535 H 0.0 **** 0.06
28514 H 153.66189093618553 93.88139335899027 74.80675402065592 H 0.0 **** 0.06
28515 H 153.89970428757104 92.25791720266008 75.49868430967297 H 0.0 **** 0.06
28516 C 187.40099624734356 95.45287084873885 62.6939198187208 C 0.0 **** -0.24
28517 H 187.24384333281992 94.41720488297409 62.99336869029602 H 0.0 **** 0.06
28518 H 187.09105177350241 96.11535954188099 63.50216720627573 H 0.0 **** 0.06
28519 H 186.81216553823973 95.6666785693238 61.802510084562755 H 0.0 **** 0.06
28520 H 188.45787164433074 95.61215110282978 62.479080606551406 H 0.0 **** 0.06
28521 C 154.80430113714363 95.7228148852297 87.15333768645536 C 0.0 **** -0.24
28522 H 155.7490052696947 95.18602971963301 87.06181998740863 H 0.0 **** 0.06
28523 H 154.99020054130187 96.79566351310439 87.11258358795499 H 0.0 **** 0.06
28524 H 154.33450946127036 95.47012476246564 88.10463690135282 H 0.0 **** 0.06
28525 H 154.1437532110977 95.4370101045105 86.33444651077434 H 0.0 **** 0.06
28526 C 69.7733687747725 134.9409507495359 4.690786899468897 C 0.0 **** -0.24
28527 H 70.18262883290606 133.9742592435182 4.399204328551221 H 0.0 **** 0.06
28528 H 68.69214326381359 134.8560831856446 4.811822571399254 H 0.0 **** 0.06
28529 H 69.99527969577696 135.67820246761403 3.9192040263110712 H 0.0 **** 0.06
28530 H 70.2211351077139 135.25561721731714 5.633713735804001 H 0.0 **** 0.06
28531 C 103.58960145563265 190.59033358892023 111.52430894117671 C 0.0 **** -0.24
28532 H 103.41178873815988 191.28177874871295 110.70020037587295 H 0.0 **** 0.06
28533 H 104.55820845433516 190.80518105505217 111.97499366152127 H 0.0 **** 0.06
28534 H 103.58117486002061 189.567903960875 111.14811443599123 H 0.0 **** 0.06
28535 H 102.8055325301923 190.7090557480172 112.27273440228339 H 0.0 **** 0.06
28536 C 143.6980526341307 132.4292767606616 178.16006778307496 C 0.0 **** -0.24
28537 H 143.10615096101736 133.31331266390342 178.3951052099342 H 0.0 **** 0.06
28538 H 143.90154207923615 131.87512600961426 179.07621278629244 H 0.0 **** 0.06
28539 H 144.63946509474553 132.73275882166567 177.7022513386417 H 0.0 **** 0.06
28540 H 143.14505240152366 131.79590954746305 177.46670179743137 H 0.0 **** 0.06
28541 C 184.46451660258506 79.41420704092803 149.83760993931367 C 0.0 **** -0.24
28542 H 184.23969456006932 80.46389749897403 150.0246544747151 H 0.0 **** 0.06
28543 H 184.9913999771223 78.99685286197843 150.69641149254912 H 0.0 **** 0.06
28544 H 185.09249589574003 79.33063026870548 148.9501784604878 H 0.0 **** 0.06
28545 H 183.53613583871424 78.8657682656605 149.67881842562502 H 0.0 **** 0.06
28546 C 118.61966210785943 75.91383532183636 45.44429031156858 C 0.0 **** -0.24
28547 H 118.26653809888222 76.76006820391457 44.855761632730605 H 0.0 **** 0.06
28548 H 118.61205973601079 76.17773874448038 46.501776418874385 H 0.0 **** 0.06
28549 H 119.6350611244419 75.65875869841821 45.14127969857026 H 0.0 **** 0.06
28550 H 117.9657179123692 75.05735359977031 45.277674736276765 H 0.0 **** 0.06
28551 C 85.56180274515347 116.621495546604 71.1153210068812 C 0.0 **** -0.24
28552 H 84.59638000556163 117.1181724553523 71.02313833170172 H 0.0 **** 0.06
28553 H 86.32798188150267 117.22291998859717 70.62649195174772 H 0.0 **** 0.06
28554 H 85.51263852650018 115.640460035507 70.64202310464889 H 0.0 **** 0.06
28555 H 85.81071796514132 116.50357329318749 72.1697261603376 H 0.0 **** 0.06
28556 C 22.609320235988136 67.22165168203094 132.11412861090722 C 0.0 **** -0.24
28557 H 22.19941954371697 67.58828647735925 133.05514509769762 H 0.0 **** 0.06
28558 H 23.4610914620213 67.83797004327465 131.82368554695972 H 0.0 **** 0.06
28559 H 21.8433356598119 67.27374710792725 131.34034286542706 H 0.0 **** 0.06
28560 H 22.932347403768375 66.1882866116132 132.2363486640302 H 0.0 **** 0.06
28561 C 36.02230745159022 151.10742697403933 167.7725218116563 C 0.0 **** -0.24
28562 H 36.525002342782614 151.3720824677556 168.70393957265642 H 0.0 **** 0.06
28563 H 35.54175429029715 150.13535651684282 167.8837574643107 H 0.0 **** 0.06
28564 H 36.7535172313909 151.06279882045573 166.9658098098045 H 0.0 **** 0.06
28565 H 35.27031542329826 151.8609413912569 167.53957829364344 H 0.0 **** 0.06
28566 C 78.23903280040405 122.59105423194129 186.72800698997534 C 0.0 **** -0.24
28567 H 78.41872015823333 121.70437257245197 187.33661424233688 H 0.0 **** 0.06
28568 H 78.21613515091255 123.47202555173436 187.36865657539622 H 0.0 **** 0.06
28569 H 77.28321193508351 122.4904243299911 186.2136172707717 H 0.0 **** 0.06
28570 H 79.03791012997686 122.69522026688466 185.99363914128762 H 0.0 **** 0.06
28571 C 82.89100364824267 185.06762814244522 34.317505513639404 C 0.0 **** -0.24
28572 H 83.26338031032196 185.16358444825116 35.3379856536212 H 0.0 **** 0.06
28573 H 83.27887503985647 185.88584913463654 33.71123671133962 H 0.0 **** 0.06
28574 H 81.80206080359184 185.10334016268393 34.323653161458694 H 0.0 **** 0.06
28575 H 83.2206028403921 184.11631786288106 33.900003653471785 H 0.0 **** 0.06
28576 C 112.67883740167267 106.7270214982949 54.66646676757668 C 0.0 **** -0.24
28577 H 112.9056577909985 107.79037667412638 54.592015743566066 H 0.0 **** 0.06
28578 H 112.19109866436955 106.52641546827002 55.62169861439379 H 0.0 **** 0.06
28579 H 113.60339641604659 106.15335904252615 54.60299477121666 H 0.0 **** 0.06
28580 H 112.01523867550628 106.43900319879754 53.852134012170566 H 0.0 **** 0.06
28581 C 19.35477779727563 89.30208098970533 55.81527193720396 C 0.0 **** -0.24
28582 H 19.656027190059262 88.88229568381223 54.85544446020097 H 0.0 **** 0.06
28583 H 18.498522138367377 89.96219880325748 55.67021180634437 H 0.0 **** 0.06
28584 H 20.182720883686386 89.86820712717866 56.240223806720095 H 0.0 **** 0.06
28585 H 19.079993973616865 88.49402487499617 56.49378049566482 H 0.0 **** 0.06
28586 C 130.71021945365914 49.758369068329245 75.12020639224835 C 0.0 **** -0.24
28587 H 129.63007954011425 49.64572125146418 75.02662797666726 H 0.0 **** 0.06
28588 H 131.1823632833579 48.77633483067123 75.087455078311 H 0.0 **** 0.06
28589 H 130.94384280346392 50.242921377380185 76.06778480836383 H 0.0 **** 0.06
28590 H 131.08389233112223 50.36925174020985 74.29798644573413 H 0.0 **** 0.06
28591 C 2.1481637772322415 150.30341812060806 60.43454344165713 C 0.0 **** -0.24
28592 H 2.8011723915589357 149.446197644156 60.60081281282572 H 0.0 **** 0.06
28593 H 2.7508495652784006 151.17587539401012 60.18469388301554 H 0.0 **** 0.06
28594 H 1.5743832415632255 150.50337298515024 61.33928905463449 H 0.0 **** 0.06
28595 H 1.4665814253108351 150.08455122007655 59.61275913119897 H 0.0 **** 0.06
28596 C 185.48884456415854 124.9607544993342 33.15611459950435 C 0.0 **** -0.24
28597 H 185.1951487898213 125.16316349902732 34.1858932465866 H 0.0 **** 0.06
28598 H 186.35690205105738 124.30202109406977 33.14804180886625 H 0.0 **** 0.06
28599 H 185.73897553171923 125.89820125385174 32.659029323416235 H 0.0 **** 0.06
28600 H 184.66374617158974 124.48068728669654 32.63077301773674 H 0.0 **** 0.06
28601 C 168.67682616055717 66.25598593365635 191.50857399741025 C 0.0 **** -0.24
28602 H 169.72921130591587 66.51751123211778 191.62335085763667 H 0.0 **** 0.06
28603 H 168.1226821168476 67.12616630961867 191.15760795815942 H 0.0 **** 0.06
28604 H 168.27608228739774 65.9334962172702 192.47029716113494 H 0.0 **** 0.06
28605 H 168.58105033681008 65.44656334807996 190.7852747931704 H 0.0 **** 0.06
28606 C 186.39319074271725 150.04137543919921 8.721374814113325 C 0.0 **** -0.24
28607 H 186.13467585255825 150.02478970572005 9.780709828707217 H 0.0 **** 0.06
28608 H 185.51881106570204 150.33152302467298 8.138995868040645 H 0.0 **** 0.06
28609 H 186.72271782961306 149.0486905767953 8.413591840064853 H 0.0 **** 0.06
28610 H 187.19669194767954 150.75905219818628 8.555183449393041 H 0.0 **** 0.06
28611 C 148.69997601546513 42.84381624166913 62.474611744962374 C 0.0 **** -0.24
28612 H 147.83755943652358 43.450675683797755 62.19844884263672 H 0.0 **** 0.06
28613 H 149.59678949508657 43.25513265824979 62.010986813501475 H 0.0 **** 0.06
28614 H 148.54862314680466 41.82042142344561 62.12947109993483 H 0.0 **** 0.06
28615 H 148.8151662906999 42.847964604280904 63.558682168134936 H 0.0 **** 0.06
28616 C 29.901182091009446 80.51270969786992 188.00620807867043 C 0.0 **** -0.24
28617 H 30.15669405003051 80.1323726354893 187.0165919583343 H 0.0 **** 0.06
28618 H 29.58568866480698 81.55294278493804 187.9249018198416 H 0.0 **** 0.06
28619 H 30.77315911615608 80.44584904159166 188.65707934863156 H 0.0 **** 0.06
28620 H 29.08919265024798 79.91810359935184 188.42437958706418 H 0.0 **** 0.06
28621 C 167.32793647037732 78.8504471028034 122.27353077611258 C 0.0 **** -0.24
28622 H 168.36077435135914 78.78650379848023 122.61639205147284 H 0.0 **** 0.06
28623 H 167.2956861506221 78.71798040081399 121.19215009880551 H 0.0 **** 0.06
28624 H 166.91864549652317 79.826417446005 122.53347973191359 H 0.0 **** 0.06
28625 H 166.73745612094314 78.06851707949446 122.75341214362663 H 0.0 **** 0.06
28626 C 59.36262617342504 25.549727361218473 144.2488934095602 C 0.0 **** -0.24
28627 H 58.696269747013275 24.871339970569537 144.7828872029266 H 0.0 **** 0.06
28628 H 59.29247023969117 25.35798660585091 143.1775627701902 H 0.0 **** 0.06
28629 H 60.38791534546306 25.38874131985321 144.58120542999256 H 0.0 **** 0.06
28630 H 59.07174324332186 26.580347798246578 144.4533520330881 H 0.0 **** 0.06
28631 C 142.70701835243293 185.72031271067084 191.78297182110387 C 0.0 **** -0.24
28632 H 142.3209703010898 184.78855798965785 192.19464121920842 H 0.0 **** 0.06
28633 H 142.8492879385892 186.4415868488 192.58851368367993 H 0.0 **** 0.06
28634 H 141.99593920151855 186.12020201351373 191.05910325581016 H 0.0 **** 0.06
28635 H 143.66090128333923 185.533145351242 191.28946657897205 H 0.0 **** 0.06
28636 C 192.77442912357404 147.1518703346668 31.739519491716337 C 0.0 **** -0.24
28637 H 192.77308617436233 146.1046970773399 32.04234295796577 H 0.0 **** 0.06
28638 H 191.75978742116425 147.4566632421579 31.48140478574018 H 0.0 **** 0.06
28639 H 193.42363825406753 147.27907530875808 30.872571911621364 H 0.0 **** 0.06
28640 H 193.1412046447021 147.76704571041097 32.561758311538156 H 0.0 **** 0.06
28641 C 101.7708167345657 191.23401004612197 165.0267513615355 C 0.0 **** -0.24
28642 H 102.42748216297443 191.95806826758806 165.50953174535732 H 0.0 **** 0.06
28643 H 102.02475702256004 190.22944273102607 165.36855038588004 H 0.0 **** 0.06
28644 H 101.89832559523137 191.2923527260427 163.94600796224285 H 0.0 **** 0.06
28645 H 100.73502315026772 191.45422258343964 165.28380730320617 H 0.0 **** 0.06
28646 C 81.9798334849564 17.124272392982903 28.72422585914815 C 0.0 **** -0.24
28647 H 81.33583218419946 16.559835195602147 28.04958249770732 H 0.0 **** 0.06
28648 H 81.52737660692054 17.158185215379092 29.71436339306355 H 0.0 **** 0.06
28649 H 82.1027925331359 18.13849647267142 28.344570401159586 H 0.0 **** 0.06
28650 H 82.95462959200356 16.638691062393377 28.786443557589948 H 0.0 **** 0.06
28651 C 189.8077619889091 150.27414929300278 141.36145315441277 C 0.0 **** -0.24
28652 H 188.8554109023271 150.00874423986153 140.90222853371358 H 0.0 **** 0.06
28653 H 190.2608798677191 149.38442163529697 141.79763722746134 H 0.0 **** 0.06
28654 H 189.63975079191422 151.01639314773325 142.1421951049369 H 0.0 **** 0.06
28655 H 190.4732047056264 150.68787186841803 140.60350901964998 H 0.0 **** 0.06
28656 C 189.7392039915255 38.656149481924274 141.18314226585278 C 0.0 **** -0.24
28657 H 189.8752083527731 37.92291078305658 140.38867672887173 H 0.0 **** 0.06
28658 H 188.67420854223934 38.79476937729629 141.37176601716317 H 0.0 **** 0.06
28659 H 190.1814990493045 39.605667302381335 140.8814707967594 H 0.0 **** 0.06
28660 H 190.22538051622226 38.30078614949838 142.0922412664887 H 0.0 **** 0.06
28661 C 114.50804511061631 185.39855791484467 40.0055601740617 C 0.0 **** -0.24
28662 H 114.14117975996021 186.17906794921691 40.67261384281575 H 0.0 **** 0.06
28663 H 114.75014525444595 184.50823472436468 40.58684740301325 H 0.0 **** 0.06
28664 H 115.40109454843878 185.75063389215072 39.49040596055386 H 0.0 **** 0.06
28665 H 113.73816901718158 185.15661279183442 39.27297773045218 H 0.0 **** 0.06
28666 C 169.9517922120234 63.63233097548664 138.9506074773162 C 0.0 **** -0.24
28667 H 170.33382528516373 64.18826638758003 138.09457580471954 H 0.0 **** 0.06
28668 H 169.001918514507 63.1668532005304 138.6860586165981 H 0.0 **** 0.06
28669 H 169.8017714631957 64.31309789869084 139.78856025271367 H 0.0 **** 0.06
28670 H 170.66828621423468 62.86148078826295 139.23150600146636 H 0.0 **** 0.06
28671 C 86.74774787406028 54.93884536924108 94.10243140337303 C 0.0 **** -0.24
28672 H 86.05656206562986 54.863098139606095 93.26260390171774 H 0.0 **** 0.06
28673 H 86.1963062857518 54.83172163581797 95.0364058986207 H 0.0 **** 0.06
28674 H 87.24180866480822 55.9099868987078 94.07930696953792 H 0.0 **** 0.06
28675 H 87.4946275081711 54.14887915160004 94.02911120775286 H 0.0 **** 0.06
28676 C 193.23834288010983 130.14618377408556 144.36182193443568 C 0.0 **** -0.24
28677 H 192.81821176029825 131.02575905238982 143.87501927062868 H 0.0 **** 0.06
28678 H 194.12481200922952 130.43349625889473 144.928035428061 H 0.0 **** 0.06
28679 H 193.5122805677836 129.40912851989802 143.6066991718747 H 0.0 **** 0.06
28680 H 192.49899159661294 129.7174101136172 145.03768988924799 H 0.0 **** 0.06
28681 C 178.55313972535313 162.84433818399356 33.25704147384948 C 0.0 **** -0.24
28682 H 177.9927103296644 162.54611991051945 34.142861109708946 H 0.0 **** 0.06
28683 H 179.4799953188222 163.3329492484483 33.56097841433228 H 0.0 **** 0.06
28684 H 177.95525116497592 163.53742113263075 32.6650068607176 H 0.0 **** 0.06
28685 H 178.78517978054646 161.96295183788507 32.659867975871435 H 0.0 **** 0.06
28686 C 105.35669397751252 41.16884320238336 35.02109251422087 C 0.0 **** -0.24
28687 H 104.75997905720445 41.39684548672318 35.904191569006656 H 0.0 **** 0.06
28688 H 106.0157756335272 42.00946930671216 34.8016003050798 H 0.0 **** 0.06
28689 H 104.69639391979584 40.99314768708484 34.17216343002838 H 0.0 **** 0.06
28690 H 105.95587639649872 40.2769448511811 35.207585054907156 H 0.0 **** 0.06
28691 C 193.61767550547745 180.6869843917016 110.3883488506275 C 0.0 **** -0.24
28692 H 194.6071223136558 180.52290892945618 110.81519652755185 H 0.0 **** 0.06
28693 H 193.1251267984856 179.72711240622823 110.23252450063399 H 0.0 **** 0.06
28694 H 193.71484499196472 181.2054039128584 109.43377721814795 H 0.0 **** 0.06
28695 H 193.02321976313294 181.29342155610323 111.07204763580677 H 0.0 **** 0.06
28696 C 52.03152450160826 147.30286639367833 77.38427774632717 C 0.0 **** -0.24
28697 H 52.464003892545435 146.58815949557024 76.68460118305931 H 0.0 **** 0.06
28698 H 52.242664117076885 146.98377578952383 78.40527282328887 H 0.0 **** 0.06
28699 H 50.95375211324546 147.35225523835504 77.23435086803278 H 0.0 **** 0.06
28700 H 52.4673358414 148.28685717559637 77.21316291518039 H 0.0 **** 0.06
28701 C 104.06565417636551 4.74030458747734 182.08919114702394 C 0.0 **** -0.24
28702 H 104.96721554632018 4.214460711522719 181.77573463430502 H 0.0 **** 0.06
28703 H 103.20098724084187 4.089981900474868 181.95344802561738 H 0.0 **** 0.06
28704 H 103.94233139498772 5.640275662240725 181.48781338669332 H 0.0 **** 0.06
28705 H 104.1532031541052 5.0143561922507445 183.14015335339008 H 0.0 **** 0.06
28706 C 75.93814211475758 153.32389613816255 103.99662577353513 C 0.0 **** -0.24
28707 H 74.94317119142802 153.3946790635104 104.43519310542968 H 0.0 **** 0.06
28708 H 76.67087860649627 153.7353019888447 104.68985669631553 H 0.0 **** 0.06
28709 H 75.96360756692368 153.88728213157358 103.0625382675216 H 0.0 **** 0.06
28710 H 76.17339831052273 152.2783030487013 103.79613809020682 H 0.0 **** 0.06
28711 C 66.7040212449169 3.07115595115647 54.63213202431774 C 0.0 **** -0.24
28712 H 66.93179060887451 3.4072572674887738 55.64387938033579 H 0.0 **** 0.06
28713 H 66.62770027301565 1.9832303039229373 54.61957777054967 H 0.0 **** 0.06
28714 H 67.49915626008732 3.3876903927524893 53.95747290566379 H 0.0 **** 0.06
28715 H 65.75816802134159 3.5057950732276026 54.30960887187486 H 0.0 **** 0.06
28716 C 72.67998985204986 149.03373028712667 153.3740028745351 C 0.0 **** -0.24
28717 H 73.67221647844428 149.09160500860898 153.81921459611965 H 0.0 **** 0.06
28718 H 72.61606737013915 149.73044084560695 152.53759207991072 H 0.0 **** 0.06
28719 H 71.93034646720457 149.29388763579593 154.1216068082411 H 0.0 **** 0.06
28720 H 72.50032934737624 148.01900237704209 153.0175802699894 H 0.0 **** 0.06
28721 C 71.8968729705506 38.9601579651511 125.1511532211307 C 0.0 **** -0.24
28722 H 72.2178245692382 38.7437305228633 124.132345138235 H 0.0 **** 0.06
28723 H 70.95502104376274 39.50952136204637 125.12685264125122 H 0.0 **** 0.06
28724 H 72.65646434163521 39.56268870478061 125.65028983766877 H 0.0 **** 0.06
28725 H 71.76016985750616 38.02607121276759 125.69474576145922 H 0.0 **** 0.06
28726 C 172.51456189445452 77.06914058318169 8.575607741277487 C 0.0 **** -0.24
28727 H 173.40376755669263 77.63635467027034 8.853408360759289 H 0.0 **** 0.06
28728 H 172.57185193773734 76.07049038563672 9.00954590873549 H 0.0 **** 0.06
28729 H 172.45867981563475 76.9921034525002 7.490065414968257 H 0.0 **** 0.06
28730 H 171.62696135630347 77.57870687096168 8.95026379704644 H 0.0 **** 0.06
28731 C 168.9684876388633 6.865669905403479 184.08226625527226 C 0.0 **** -0.24
28732 H 169.55866956469407 6.914427385443815 183.1663843219435 H 0.0 **** 0.06
28733 H 168.86493711503726 5.8258734372033985 184.3922134655177 H 0.0 **** 0.06
28734 H 167.9806840321001 7.290975835509215 183.90044321720802 H 0.0 **** 0.06
28735 H 169.4695838790102 7.431928594048884 184.8664577546688 H 0.0 **** 0.06
28736 C 38.29797251801824 143.8713195947147 132.077469631874 C 0.0 **** -0.24
28737 H 38.34863024615258 144.90653858486326 132.41378808690024 H 0.0 **** 0.06
28738 H 37.29403335423655 143.65837708940637 131.70921110391362 H 0.0 **** 0.06
28739 H 38.527843878075274 143.2074440665639 132.91064795362445 H 0.0 **** 0.06
28740 H 39.02104166209736 143.7134794136242 131.27698591473302 H 0.0 **** 0.06
28741 C 25.063689380855507 128.61759442010546 55.36550021256471 C 0.0 **** -0.24
28742 H 25.92833006618386 129.18988594312071 55.03174499394595 H 0.0 **** 0.06
28743 H 24.21355737283382 128.83416509031994 54.71789198532133 H 0.0 **** 0.06
28744 H 24.819700961815983 128.89286810446578 56.39151275165199 H 0.0 **** 0.06
28745 H 25.293080540457012 127.55268482923094 55.32022378962091 H 0.0 **** 0.06
28746 C 196.4908014719798 139.42819047073533 143.55162389077734 C 0.0 **** -0.24
28747 H 197.04386988187537 139.8915824983534 144.36858217836348 H 0.0 **** 0.06
28748 H 195.54184621539306 139.94598983016857 143.41524791099215 H 0.0 **** 0.06
28749 H 196.30348689442206 138.38058521987796 143.7884427699128 H 0.0 **** 0.06
28750 H 197.07607028380372 139.4934790567878 142.63354462693394 H 0.0 **** 0.06
28751 C 153.78159359201362 70.97236558305167 154.44975085720188 C 0.0 **** -0.24
28752 H 154.80585497495014 70.6748283360013 154.67064868958676 H 0.0 **** 0.06
28753 H 153.76468643118034 71.56877983255437 153.53753384685803 H 0.0 **** 0.06
28754 H 153.3883141903781 71.5624006603434 155.27796074362712 H 0.0 **** 0.06
28755 H 153.16603536658386 70.08283061947265 154.314413092241 H 0.0 **** 0.06
28756 C 133.21147187389863 179.4883160955034 188.66959407934934 C 0.0 **** -0.24
28757 H 132.2363735810175 179.66764031984985 188.2157649902504 H 0.0 **** 0.06
28758 H 133.64982154074315 178.58632203055046 188.24250631356313 H 0.0 **** 0.06
28759 H 133.09286637051076 179.362115835186 189.74571903019063 H 0.0 **** 0.06
28760 H 133.86448223304996 180.33835394632527 188.47331674346924 H 0.0 **** 0.06
28761 C 23.101105462217078 71.52139589472813 148.0729569597156 C 0.0 **** -0.24
28762 H 22.121231301916595 71.99688083649932 148.01417416561387 H 0.0 **** 0.06
28763 H 23.569829718978212 71.77492164248082 149.02339524365328 H 0.0 **** 0.06
28764 H 23.726211684837125 71.87388092157465 147.25241859826468 H 0.0 **** 0.06
28765 H 22.98388258486915 70.43933141962583 148.00176015464555 H 0.0 **** 0.06
28766 C 150.62495416367392 95.55267376666598 71.33055834308543 C 0.0 **** -0.24
28767 H 149.6486062725591 95.54713427012896 70.84561834741129 H 0.0 **** 0.06
28768 H 150.61555897038784 96.26172375120558 72.15880259921157 H 0.0 **** 0.06
28769 H 151.386932159382 95.84634588559271 70.60894771984415 H 0.0 **** 0.06
28770 H 150.84755766629084 94.55475302770782 71.70853924907321 H 0.0 **** 0.06
28771 C 108.82122759556307 184.0394774479612 104.31264283075953 C 0.0 **** -0.24
28772 H 107.83445474261293 183.93093464742424 104.76292439021361 H 0.0 **** 0.06
28773 H 109.35771801027352 183.09254504692473 104.38287654026459 H 0.0 **** 0.06
28774 H 109.3787799163415 184.81352599719816 104.84010461909287 H 0.0 **** 0.06
28775 H 108.71268839244294 184.31906822391772 103.26480175605408 H 0.0 **** 0.06
28776 C 120.45688311576379 179.3528663801579 63.803873294617986 C 0.0 **** -0.24
28777 H 119.54268649625948 179.62874261806206 63.27753543571734 H 0.0 **** 0.06
28778 H 121.31322860450734 179.50657155308954 63.14620252902148 H 0.0 **** 0.06
28779 H 120.40548379432778 178.3042997498522 64.09561940936692 H 0.0 **** 0.06
28780 H 120.56488756773433 179.97309099842582 64.69298752625375 H 0.0 **** 0.06
28781 C 98.52112933874056 13.155923687137403 92.23852249614472 C 0.0 **** -0.24
28782 H 98.04591504989753 13.176950611560216 91.2570338499346 H 0.0 **** 0.06
28783 H 98.43496876718956 12.155581707668489 92.66188161780752 H 0.0 **** 0.06
28784 H 98.02964198264081 13.873586205743663 92.89417509885658 H 0.0 **** 0.06
28785 H 99.5742786169397 13.41826484077427 92.13636866453152 H 0.0 **** 0.06
28786 C 23.417212716414824 82.85795380191917 96.9371360131558 C 0.0 **** -0.24
28787 H 23.080308520239413 82.28837207356514 96.07116321108887 H 0.0 **** 0.06
28788 H 22.552068365403358 83.26087090056205 97.46492173991984 H 0.0 **** 0.06
28789 H 24.0561815435333 83.67656849511513 96.60766297969451 H 0.0 **** 0.06
28790 H 23.97822899615359 82.20468439200147 97.60475527224358 H 0.0 **** 0.06
28791 C 63.96305788426167 56.175432233970625 153.48974851681496 C 0.0 **** -0.24
28792 H 64.42233424752908 56.04241787762186 152.51004494280375 H 0.0 **** 0.06
28793 H 64.60842195633069 55.74482846665535 154.2550590955034 H 0.0 **** 0.06
28794 H 62.99394583247147 55.67507152709838 153.50785140526293 H 0.0 **** 0.06
28795 H 63.825789979764295 57.238908177197814 153.6851893547797 H 0.0 **** 0.06
28796 C 87.58734312627854 83.03814086606451 152.0952743778432 C 0.0 **** -0.24
28797 H 88.04352217920146 83.5692304366691 152.9304104214396 H 0.0 **** 0.06
28798 H 87.90819203722586 81.99703311128974 152.10914083742145 H 0.0 **** 0.06
28799 H 87.89644631838215 83.50224341207331 151.15853602989932 H 0.0 **** 0.06
28800 H 86.5016589891558 83.08639940250373 152.18356801424594 H 0.0 **** 0.06
28801 C 46.18576726003447 157.95076568779575 126.79216301371525 C 0.0 **** -0.24
28802 H 45.65447273646909 157.53207903110615 125.9376647473407 H 0.0 **** 0.06
28803 H 45.490273957164334 158.52369469659567 127.40766293829813 H 0.0 **** 0.06
28804 H 46.98317855708123 158.60469538783008 126.43952176893166 H 0.0 **** 0.06
28805 H 46.61448563703365 157.14307749052853 127.3853299459424 H 0.0 **** 0.06
28806 C 10.337359054170776 168.3353210619668 84.5945405759212 C 0.0 **** -0.24
28807 H 10.93541564781799 168.49464565826912 85.49209039516288 H 0.0 **** 0.06
28808 H 10.672216102338268 169.0142646218973 83.80936918433386 H 0.0 **** 0.06
28809 H 9.288157276424272 168.52637442812062 84.81746186200397 H 0.0 **** 0.06
28810 H 10.455864374567824 167.30497108506742 84.25907806149843 H 0.0 **** 0.06
28811 C 180.4628883478971 44.5750280206633 112.97834587149487 C 0.0 **** -0.24
28812 H 180.1732253362406 45.16862390113255 112.11159853810557 H 0.0 **** 0.06
28813 H 181.2853868277089 45.06702078618309 113.49767144868332 H 0.0 **** 0.06
28814 H 180.78008695407058 43.58500359114532 112.65065339908568 H 0.0 **** 0.06
28815 H 179.61159255175394 44.478130389423626 113.65266628048755 H 0.0 **** 0.06
28816 C 40.46717900260448 10.5989484767195 157.07770384782486 C 0.0 **** -0.24
28817 H 40.08870703042534 9.716647497296663 156.56224035240433 H 0.0 **** 0.06
28818 H 40.1482237916468 11.494939010238681 156.5451672574289 H 0.0 **** 0.06
28819 H 41.556351060784806 10.562619449849166 157.1087702631889 H 0.0 **** 0.06
28820 H 40.07543412756091 10.621587949493346 158.09463751827724 H 0.0 **** 0.06
28821 C 62.496288844843605 33.626043343153725 104.84181050993718 C 0.0 **** -0.24
28822 H 63.389359871832994 33.259455647896885 104.33671124955171 H 0.0 **** 0.06
28823 H 62.07421434719237 34.456082229030244 104.27589599970935 H 0.0 **** 0.06
28824 H 62.759559327244176 33.966065774331895 105.84387642717459 H 0.0 **** 0.06
28825 H 61.762442265197535 32.82257643437134 104.9121086355168 H 0.0 **** 0.06
28826 C 140.0507211471483 112.55197585352187 65.85327722436716 C 0.0 **** -0.24
28827 H 138.9969488997076 112.38414063190444 65.6264003547966 H 0.0 **** 0.06
28828 H 140.17579623601378 113.54846507448323 66.2767487511212 H 0.0 **** 0.06
28829 H 140.63657196972557 112.4695916035657 64.93760078622654 H 0.0 **** 0.06
28830 H 140.39075064959312 111.80634201072374 66.57154582263036 H 0.0 **** 0.06
28831 C 77.27075529361298 22.510326624182312 61.86440241364504 C 0.0 **** -0.24
28832 H 77.75151841586649 21.650795884213125 61.39707125218429 H 0.0 **** 0.06
28833 H 77.56863300577788 23.42090190037368 61.343413696514915 H 0.0 **** 0.06
28834 H 77.57501740966279 22.573232884868503 62.909784677008645 H 0.0 **** 0.06
28835 H 76.18867538966242 22.396285780425842 61.807900838654106 H 0.0 **** 0.06
28836 C 184.95513320875702 177.0254665123595 122.70233206966975 C 0.0 **** -0.24
28837 H 184.21913124631772 176.63124603526828 122.00229565012569 H 0.0 **** 0.06
28838 H 184.52603816672487 177.8677100088751 123.24558342123723 H 0.0 **** 0.06
28839 H 185.83692331673137 177.35803780180854 122.15411474217737 H 0.0 **** 0.06
28840 H 185.23967428405547 176.2448350372016 123.40854916106929 H 0.0 **** 0.06
28841 C 56.30826792468508 47.58964160417899 112.51742796666645 C 0.0 **** -0.24
28842 H 56.260095221763095 48.57752809504474 112.9747586335076 H 0.0 **** 0.06
28843 H 56.6314470322186 47.68496502263133 111.48002571682721 H 0.0 **** 0.06
28844 H 55.32201490133019 47.126661714314665 112.54943229662186 H 0.0 **** 0.06
28845 H 57.01800117851843 46.97003754975184 113.0639727209348 H 0.0 **** 0.06
28846 C 161.71857726601257 88.24273981900046 19.30398715652842 C 0.0 **** -0.24
28847 H 161.35506319435075 87.3800509221935 18.744737577464576 H 0.0 **** 0.06
28848 H 162.77827129775585 88.11348870827413 19.522146211786264 H 0.0 **** 0.06
28849 H 161.16227585827934 88.32976956295818 20.237853459829694 H 0.0 **** 0.06
28850 H 161.5761041768132 89.14593315766388 18.710645017128627 H 0.0 **** 0.06
28851 C 15.692563923137243 42.23196030763188 179.47844998752174 C 0.0 **** -0.24
28852 H 15.104032874406244 41.33381732801047 179.2940535341134 H 0.0 **** 0.06
28853 H 15.025602902094988 43.08710749795034 179.58788472316067 H 0.0 **** 0.06
28854 H 16.36832181736736 42.40216624218695 178.64014640504848 H 0.0 **** 0.06
28855 H 16.273567987984393 42.10426012031439 180.39209906265052 H 0.0 **** 0.06
28856 C 64.99405566041935 189.99182223029925 54.08140273831084 C 0.0 **** -0.24
28857 H 64.36908378221645 189.68569325879565 54.920953754783966 H 0.0 **** 0.06
28858 H 66.04112615528288 189.80898985345348 54.32217519439129 H 0.0 **** 0.06
28859 H 64.84501997115171 191.05388408290554 53.885942580848706 H 0.0 **** 0.06
28860 H 64.7190084880877 189.4172922984829 53.19639928551469 H 0.0 **** 0.06
28861 C 131.20043428990544 153.44113525031673 166.52764922848814 C 0.0 **** -0.24
28862 H 132.0476579755811 153.47893799329142 167.21301532013405 H 0.0 **** 0.06
28863 H 131.16315229080402 154.36224561902912 165.94510528415543 H 0.0 **** 0.06
28864 H 130.27741731123803 153.33332892188716 167.09638564555186 H 0.0 **** 0.06
28865 H 131.31594594046157 152.58981057555536 165.8559610090541 H 0.0 **** 0.06
28866 C 138.11093098977503 71.12789643873595 117.8621963087856 C 0.0 **** -0.24
28867 H 137.8953150326157 71.00802589648004 116.800258219912 H 0.0 **** 0.06
28868 H 138.80122636440194 70.34755094441778 118.18327557787023 H 0.0 **** 0.06
28869 H 137.18447073918384 71.05175769391519 118.43189709914611 H 0.0 **** 0.06
28870 H 138.56283972297945 72.10559790451987 118.03294187493279 H 0.0 **** 0.06
28871 C 56.163973780283044 91.70336490077449 80.51765685768382 C 0.0 **** -0.24
28872 H 56.83981641760148 91.0376750917699 79.97916031300059 H 0.0 **** 0.06
28873 H 56.42410589331166 91.70664955660271 81.57597447011719 H 0.0 **** 0.06
28874 H 55.13794863736922 91.35459199528157 80.39611027669358 H 0.0 **** 0.06
28875 H 56.25393051183369 92.71243443314094 80.11629276786246 H 0.0 **** 0.06
28876 C 41.302911295112494 120.76335025284169 23.38201921836628 C 0.0 **** -0.24
28877 H 41.85993141658068 119.8730008830774 23.092249927935285 H 0.0 **** 0.06
28878 H 40.41113961148412 120.46994510167846 23.93517954520172 H 0.0 **** 0.06
28879 H 41.0108635754566 121.31558129963778 22.488482596418265 H 0.0 **** 0.06
28880 H 41.92965252265583 121.39555704273002 24.010036467150258 H 0.0 **** 0.06
28881 C 198.147304635323 84.01609793639733 133.20231391049967 C 0.0 **** -0.24
28882 H 199.11589949862642 84.37352703762585 132.85509773017958 H 0.0 **** 0.06
28883 H 198.2475423602023 82.99518099952957 133.5724432325913 H 0.0 **** 0.06
28884 H 197.43529676529147 84.03468296801162 132.37645732567515 H 0.0 **** 0.06
28885 H 197.7886925957341 84.660492423217 134.00451763592804 H 0.0 **** 0.06
28886 C 2.9635847648327385 170.7249702150445 157.04425289268272 C 0.0 **** -0.24
28887 H 2.948187382600736 170.30664752840923 158.05154121824467 H 0.0 **** 0.06
28888 H 2.278799061502397 171.57135710043204 156.99263448353415 H 0.0 **** 0.06
28889 H 2.6542968280034174 169.96259049613695 156.3298630831867 H 0.0 **** 0.06
28890 H 3.9735941282138185 171.05849173624716 156.80563359909516 H 0.0 **** 0.06
28891 C 174.11409648604337 70.06412628948004 40.76806906993488 C 0.0 **** -0.24
28892 H 173.70981284644233 71.07612792353615 40.73730995440951 H 0.0 **** 0.06
28893 H 174.92674683775508 69.97551882301667 40.04663797944633 H 0.0 **** 0.06
28894 H 173.32788316322396 69.35157370736675 40.51872370775442 H 0.0 **** 0.06
28895 H 174.49114962921348 69.85300432408889 41.768468046908026 H 0.0 **** 0.06
28896 C 10.172661723975608 16.473030400176583 198.6474850181574 C 0.0 **** -0.24
28897 H 9.783396676664523 16.49888277846776 197.629614661417 H 0.0 **** 0.06
28898 H 10.038535537268217 17.450389898993194 199.11231755159042 H 0.0 **** 0.06
28899 H 11.232774277505882 16.223157487505432 198.62389357414628 H 0.0 **** 0.06
28900 H 9.633601494887046 15.719432831002678 199.22200174157098 H 0.0 **** 0.06
28901 C 4.6018807158624 136.7182244580498 76.15684188887484 C 0.0 **** -0.24
28902 H 4.139171336539782 137.26237149451896 76.98127427170253 H 0.0 **** 0.06
28903 H 5.635410525281735 136.48439230507313 76.41204834886638 H 0.0 **** 0.06
28904 H 4.579027778561077 137.33350354272216 75.25768613924753 H 0.0 **** 0.06
28905 H 4.053214970576477 135.79351739688613 75.9803244238698 H 0.0 **** 0.06
28906 C 137.8653668068435 191.20860299523846 99.46196524805919 C 0.0 **** -0.24
28907 H 138.89171030048516 191.1709849905149 99.09725907217734 H 0.0 **** 0.06
28908 H 137.1929902089833 190.8228686887465 98.69481828316873 H 0.0 **** 0.06
28909 H 137.5989698021982 192.23945660606586 99.69344771396754 H 0.0 **** 0.06
28910 H 137.77735706454075 190.60020909936006 100.36243504140288 H 0.0 **** 0.06
28911 C 101.85450381359811 130.96234727110746 184.37979682946238 C 0.0 **** -0.24
28912 H 101.72245723548588 130.7206137699152 185.4338804472714 H 0.0 **** 0.06
28913 H 101.04533100353399 131.61666339918935 184.0526890659368 H 0.0 **** 0.06
28914 H 101.83992415144519 130.04523457827162 183.7914292478635 H 0.0 **** 0.06
28915 H 102.80992213146914 131.46837859561546 184.2404131018299 H 0.0 **** 0.06
28916 C 175.32857809398007 56.6073370542307 132.22529401525082 C 0.0 **** -0.24
28917 H 175.22981032383123 56.04734768236847 133.1557479553352 H 0.0 **** 0.06
28918 H 174.77090588407358 57.54089457824642 132.30311270448522 H 0.0 **** 0.06
28919 H 174.9322173277457 56.01468721875051 131.4004376572925 H 0.0 **** 0.06
28920 H 176.38084657580578 56.825890500936225 132.04307678677787 H 0.0 **** 0.06
28921 C 124.70775581426659 97.28157576539704 80.5216387917817 C 0.0 **** -0.24
28922 H 124.3573424702158 98.04535368949124 81.21514036456037 H 0.0 **** 0.06
28923 H 125.76418160873041 97.08200405094195 80.70468900718089 H 0.0 **** 0.06
28924 H 124.5759397485549 97.63307835427509 79.49871889281059 H 0.0 **** 0.06
28925 H 124.13391102543875 96.36662499457142 80.66914787478936 H 0.0 **** 0.06
28926 C 64.68706038577322 105.95162907169279 149.27555107066752 C 0.0 **** -0.24
28927 H 65.10189976893521 106.88666131135318 149.65363136064454 H 0.0 **** 0.06
28928 H 64.19425744181454 106.13274921201045 148.31964915951164 H 0.0 **** 0.06
28929 H 63.96184556914936 105.56214471777696 149.99091120210147 H 0.0 **** 0.06
28930 H 65.48873830439828 105.22671088047088 149.1409599328132 H 0.0 **** 0.06
28931 C 40.93918279313887 153.76652152919772 194.6212413431088 C 0.0 **** -0.24
28932 H 39.951245080784645 154.194019668355 194.45111465040748 H 0.0 **** 0.06
28933 H 41.58652455674029 154.5173064237551 195.07492887376057 H 0.0 **** 0.06
28934 H 41.365177133725325 153.4459648570678 193.67075151439496 H 0.0 **** 0.06
28935 H 40.85371176666341 152.90956188162065 195.2888082174477 H 0.0 **** 0.06
28936 C 38.647535524447534 31.613032080735707 23.225796740695102 C 0.0 **** -0.24
28937 H 37.77715251861227 31.56982102034135 22.570470160504044 H 0.0 **** 0.06
28938 H 38.37959172990736 32.1208413018058 24.153147070181205 H 0.0 **** 0.06
28939 H 39.44882191791547 32.160185254435305 22.729988124049356 H 0.0 **** 0.06
28940 H 38.98362157027714 30.59999838389774 23.450248546047078 H 0.0 **** 0.06
28941 C 1.6952282119913278 135.60658751228664 160.9763408778026 C 0.0 **** -0.24
28942 H 0.8153037611327889 136.17682159307532 160.68204903000384 H 0.0 **** 0.06
28943 H 2.3134650646720942 136.20919821352166 161.6417619624791 H 0.0 **** 0.06
28944 H 2.2684984036807165 135.34002603207446 160.08836399242549 H 0.0 **** 0.06
28945 H 1.3834795342906858 134.69808829658115 161.49293902732268 H 0.0 **** 0.06
28946 C 39.69538969242441 10.23026498579749 88.81650537045385 C 0.0 **** -0.24
28947 H 40.558396557649615 9.727260295782798 89.2527806451921 H 0.0 **** 0.06
28948 H 39.68657656462304 10.064538162115568 87.73853892272774 H 0.0 **** 0.06
28949 H 39.75732790091175 11.298860567741926 89.01896226233603 H 0.0 **** 0.06
28950 H 38.78153606922264 9.829786148005276 89.25363453393652 H 0.0 **** 0.06
28951 C 10.792872358581093 60.84926064650266 58.299951461910794 C 0.0 **** -0.24
28952 H 9.796493100561513 60.61480390973169 57.9238635486723 H 0.0 **** 0.06
28953 H 11.496383046708772 60.087154720668835 57.96380124935979 H 0.0 **** 0.06
28954 H 10.774370403682617 60.87176569007373 59.38932461734632 H 0.0 **** 0.06
28955 H 11.102968793161445 61.822691916904915 57.92082030821348 H 0.0 **** 0.06
28956 C 183.59854744481106 48.67270065324959 114.62322540300966 C 0.0 **** -0.24
28957 H 183.18952140485808 48.08974564207671 113.79861105990301 H 0.0 **** 0.06
28958 H 183.2445791421594 49.701672356548755 114.55104935126872 H 0.0 **** 0.06
28959 H 184.6876936724123 48.65855942238284 114.5719396960385 H 0.0 **** 0.06
28960 H 183.2742311126446 48.24086755933581 115.57002515891179 H 0.0 **** 0.06
28961 C 112.47604051171032 177.96533603225052 36.52293866078065 C 0.0 **** -0.24
28962 H 112.93981062734537 177.0093533767587 36.278747883609014 H 0.0 **** 0.06
28963 H 111.3988324807112 177.8961721897572 36.371139762987724 H 0.0 **** 0.06
28964 H 112.88460666244868 178.74263409682877 35.877340412969545 H 0.0 **** 0.06
28965 H 112.6816529899894 178.21381646361357 37.56429867242488 H 0.0 **** 0.06
28966 C 153.70102455965463 174.63895893182922 184.9851207109691 C 0.0 **** -0.24
28967 H 154.35650707949532 175.0369725176337 185.75956988841372 H 0.0 **** 0.06
28968 H 152.93567223791922 175.3767747280731 184.74185463653262 H 0.0 **** 0.06
28969 H 153.2250609921457 173.72642160565331 185.34559819572308 H 0.0 **** 0.06
28970 H 154.2872064367752 174.41429868572493 184.09354161611398 H 0.0 **** 0.06
28971 C 19.63610862106134 99.18550148185551 97.35351342492984 C 0.0 **** -0.24
28972 H 18.69092983071414 99.69560477792797 97.5421198574733 H 0.0 **** 0.06
28973 H 19.7843526097127 98.40777838188171 98.10226115807484 H 0.0 **** 0.06
28974 H 20.45342764228664 99.90367145157711 97.40820497512885 H 0.0 **** 0.06
28975 H 19.613818038093484 98.73573187116861 96.36014232539068 H 0.0 **** 0.06
28976 C 31.04463345083495 90.40468380167616 148.68768240650573 C 0.0 **** -0.24
28977 H 31.557347180452155 89.8774791617509 147.88382510713203 H 0.0 **** 0.06
28978 H 30.487535068094175 91.24475767555654 148.27345306020734 H 0.0 **** 0.06
28979 H 31.776932730180164 90.77275855908101 149.40625489446538 H 0.0 **** 0.06
28980 H 30.35692838620595 89.72298881997006 149.18782275832143 H 0.0 **** 0.06
28981 C 166.35134982102085 140.7642233876336 97.0002544212698 C 0.0 **** -0.24
28982 H 166.32128939511546 140.00598233745694 96.21810190928363 H 0.0 **** 0.06
28983 H 167.25081625775712 141.36915466676294 96.8860880637925 H 0.0 **** 0.06
28984 H 166.36004521180627 140.27941803405758 97.9761887581642 H 0.0 **** 0.06
28985 H 165.47135652217503 141.4035136597372 96.92043930074738 H 0.0 **** 0.06
28986 C 109.75445226657448 82.15665806636258 9.888501649925615 C 0.0 **** -0.24
28987 H 108.74500549383373 82.10638391715074 9.482476567273324 H 0.0 **** 0.06
28988 H 110.0875499632051 81.15487724687543 10.158775187227235 H 0.0 **** 0.06
28989 H 109.75893930945833 82.79306178781297 10.77371906035279 H 0.0 **** 0.06
28990 H 110.4273072625565 82.57315812639985 9.138493949958217 H 0.0 **** 0.06
28991 C 95.01607428302896 81.59803330417779 157.34524207744153 C 0.0 **** -0.24
28992 H 95.6351488414098 81.97785680375367 158.15800986891296 H 0.0 **** 0.06
28993 H 95.40784177680806 80.63814493519993 157.00718401302285 H 0.0 **** 0.06
28994 H 95.02758103142494 82.30708656676515 156.51795389885186 H 0.0 **** 0.06
28995 H 93.99282924971399 81.46863113399144 157.69798045724878 H 0.0 **** 0.06
28996 C 89.70823961727149 177.68910825451545 67.71917845674105 C 0.0 **** -0.24
28997 H 89.07097935007255 176.81566370258824 67.58503813819414 H 0.0 **** 0.06
28998 H 90.15005190665289 177.96581741981768 66.76183023117025 H 0.0 **** 0.06
28999 H 90.49898286449456 177.45526423911562 68.43127659101916 H 0.0 **** 0.06
29000 H 89.11225043590244 178.51921617756085 68.09802460986214 H 0.0 **** 0.06
29001 C 27.18449094051681 40.611047483464546 194.58729265310572 C 0.0 **** -0.24
29002 H 27.69724165380336 41.32510224028297 193.94302625825617 H 0.0 **** 0.06
29003 H 27.803363693258405 40.39928858599754 195.45952277126042 H 0.0 **** 0.06
29004 H 27.005182261579222 39.68796686891244 194.03564940925423 H 0.0 **** 0.06
29005 H 26.232484403885195 41.03118284192685 194.90975426201157 H 0.0 **** 0.06
29006 C 91.67986760529763 92.61697168793398 173.47975488774318 C 0.0 **** -0.24
29007 H 91.64463161831517 92.60130262182031 174.5684291078766 H 0.0 **** 0.06
29008 H 90.68853984782254 92.39923534613598 173.081208950616 H 0.0 **** 0.06
29009 H 92.38612530282231 91.86386355365778 173.1281259387028 H 0.0 **** 0.06
29010 H 92.00098248976838 93.6009456846669 173.1398783518057 H 0.0 **** 0.06
29011 C 129.57847630588827 45.860766527232556 1.4061522796808674 C 0.0 **** -0.24
29012 H 129.52421094982412 44.84858187126724 1.8044864774588092 H 0.0 **** 0.06
29013 H 130.27635776451947 45.88457882032367 0.5684428109636599 H 0.0 **** 0.06
29014 H 129.92299034674895 46.53998460813591 2.185439479342442 H 0.0 **** 0.06
29015 H 128.59032970036253 46.16983644646359 1.0648287365775317 H 0.0 **** 0.06
29016 C 118.63713740818571 176.99532841839607 158.70552161372552 C 0.0 **** -0.24
29017 H 117.91556461528359 176.55116269148576 158.02010992278352 H 0.0 **** 0.06
29018 H 119.16751985436585 176.20523671988863 159.23829293336374 H 0.0 **** 0.06
29019 H 118.11505909639129 177.63022497979492 159.42137863520108 H 0.0 **** 0.06
29020 H 119.35138438799939 177.59654233395423 158.14152445377405 H 0.0 **** 0.06
29021 C 6.849314975671064 66.30418957348454 50.695851076898066 C 0.0 **** -0.24
29022 H 5.775293756906962 66.35728900028954 50.87446114909085 H 0.0 **** 0.06
29023 H 7.099743579125288 65.33276994988313 50.26864605763075 H 0.0 **** 0.06
29024 H 7.380750917216375 66.43389200246995 51.63865795156596 H 0.0 **** 0.06
29025 H 7.141397811461985 67.09298467806718 50.002620536710424 H 0.0 **** 0.06
29026 C 145.11190754099263 117.57215182461289 28.761663094733436 C 0.0 **** -0.24
29027 H 144.03812147852173 117.63793963012716 28.936234377928102 H 0.0 **** 0.06
29028 H 145.62267588499017 118.33363926620939 29.34985713372896 H 0.0 **** 0.06
29029 H 145.31742063554117 117.73149271940815 27.70320075405172 H 0.0 **** 0.06
29030 H 145.46800125685576 116.58438935133375 29.056526237160256 H 0.0 **** 0.06
29031 C 127.29887129415042 51.35534113600687 40.31198737949761 C 0.0 **** -0.24
29032 H 128.209717029795 51.82145216696455 39.93848075524508 H 0.0 **** 0.06
29033 H 126.84151911311679 52.00045124165962 41.06319018150559 H 0.0 **** 0.06
29034 H 127.54157369498347 50.39156386322679 40.759245234806045 H 0.0 **** 0.06
29035 H 126.60189249775684 51.20728082727794 39.487118065682125 H 0.0 **** 0.06
29036 C 142.7508362114181 140.01877346257905 163.7286496759919 C 0.0 **** -0.24
29037 H 143.33863579446535 140.59122709949264 163.01156659061428 H 0.0 **** 0.06
29038 H 143.2264989114233 140.06680783929076 164.70837483324863 H 0.0 **** 0.06
29039 H 142.69316778839746 138.97979083876447 163.40352792702865 H 0.0 **** 0.06
29040 H 141.7466778133488 140.43674964058093 163.79136717041337 H 0.0 **** 0.06
29041 C 1.7812685000746171 161.5547541757931 119.00204677368512 C 0.0 **** -0.24
29042 H 2.366212074947498 162.43754328545998 119.262231530198 H 0.0 **** 0.06
29043 H 1.4059667517417438 161.08646299641617 119.91255414568676 H 0.0 **** 0.06
29044 H 2.410660321218529 160.8482044604637 118.46130458933325 H 0.0 **** 0.06
29045 H 0.9412804567184594 161.84904546738244 118.37182504097365 H 0.0 **** 0.06
29046 C 179.4525036358826 90.14769996512359 90.93433558705422 C 0.0 **** -0.24
29047 H 179.17408359479148 89.51416230801192 91.77703542694172 H 0.0 **** 0.06
29048 H 179.53041536869085 89.53833355334461 90.03280352170418 H 0.0 **** 0.06
29049 H 180.41327009631127 90.61946726884935 91.13835539931503 H 0.0 **** 0.06
29050 H 178.69350688688627 90.9155460729404 90.79040527466816 H 0.0 **** 0.06
29051 C 167.85885546706515 142.25660865873198 79.3173034164036 C 0.0 **** -0.24
29052 H 168.58194309483258 142.78622696291416 78.696490698274 H 0.0 **** 0.06
29053 H 168.30160928186223 141.328740550947 79.6783179577555 H 0.0 **** 0.06
29054 H 166.97113716913123 142.0306377327097 78.72698059343512 H 0.0 **** 0.06
29055 H 167.58243023969618 142.8821968297273 80.1651336963416 H 0.0 **** 0.06
29056 C 182.4400130457018 113.55333519963455 194.73669840919035 C 0.0 **** -0.24
29057 H 182.50221024174022 114.62636917000654 194.92025577948442 H 0.0 **** 0.06
29058 H 183.3901562824974 113.08588985497587 194.99467196544828 H 0.0 **** 0.06
29059 H 182.2227729409097 113.3768195199516 193.68252922593766 H 0.0 **** 0.06
29060 H 181.64600333004142 113.12534201642916 195.3474275282387 H 0.0 **** 0.06
29061 C 184.72649930189795 80.30663080516095 113.17822462586491 C 0.0 **** -0.24
29062 H 183.6430582600882 80.194821323133 113.22151242466566 H 0.0 **** 0.06
29063 H 185.10281987573518 80.57509391581388 114.16550831007191 H 0.0 **** 0.06
29064 H 184.98338337492163 81.09030390116257 112.46604366755912 H 0.0 **** 0.06
29065 H 185.17664447681977 79.36544942608697 112.86095717191574 H 0.0 **** 0.06
29066 C 144.9217590459052 119.08122342701029 168.6334366461792 C 0.0 **** -0.24
29067 H 145.40721100346778 119.55623584776265 169.48629964324346 H 0.0 **** 0.06
29068 H 143.84003743686947 119.10134392491597 168.77410382873876 H 0.0 **** 0.06
29069 H 145.25906447744433 118.04792882700286 168.5526530120263 H 0.0 **** 0.06
29070 H 145.18009204051876 119.62011239534087 167.72244301106218 H 0.0 **** 0.06
29071 C 141.3297682065864 196.4548832239987 161.22280788487433 C 0.0 **** -0.24
29072 H 140.50079588232572 196.4453848196927 160.51372933424437 H 0.0 **** 0.06
29073 H 141.9360511755568 197.34630763131412 161.05867320630804 H 0.0 **** 0.06
29074 H 141.9428061456378 195.56543970289715 161.07651572773264 H 0.0 **** 0.06
29075 H 140.93741682133532 196.4637898809119 162.23947436611306 H 0.0 **** 0.06
29076 C 6.208642776561788 33.340243588469605 75.65067420856644 C 0.0 **** -0.24
29077 H 6.2874596352808965 32.34155433722148 76.08057579167667 H 0.0 **** 0.06
29078 H 5.301367509394936 33.822297293288784 76.01498520306791 H 0.0 **** 0.06
29079 H 6.168727678154369 33.26570844442696 74.56339273346902 H 0.0 **** 0.06
29080 H 7.076903101271796 33.930426923795494 75.94174000153595 H 0.0 **** 0.06
29081 C 117.72730443401198 26.451306041326845 11.305051606237598 C 0.0 **** -0.24
29082 H 117.43838025190934 26.37592173744943 12.353366781433252 H 0.0 **** 0.06
29083 H 117.27146508645075 25.63496240403144 10.743997013030075 H 0.0 **** 0.06
29084 H 118.812443207352 26.388240487263502 11.222273189374384 H 0.0 **** 0.06
29085 H 117.38696477867887 27.404647923502722 10.901513696291879 H 0.0 **** 0.06
29086 C 37.41091628886895 144.82192983201847 6.234301437111682 C 0.0 **** -0.24
29087 H 37.42445769530963 145.70839942496661 6.867946417198041 H 0.0 **** 0.06
29088 H 36.73987145850765 144.98825777257554 5.391453562513895 H 0.0 **** 0.06
29089 H 37.06181075376618 143.9667969643651 6.8139321884477795 H 0.0 **** 0.06
29090 H 38.41713133121618 144.62473554576775 5.864663260158629 H 0.0 **** 0.06
29091 C 26.840623924866975 144.21995129160126 194.76331963585997 C 0.0 **** -0.24
29092 H 25.861328372585092 144.69073111674908 194.6766347971357 H 0.0 **** 0.06
29093 H 26.86599597437123 143.31922193954352 194.1491131562008 H 0.0 **** 0.06
29094 H 27.026386368432014 143.95582831358178 195.80422214891877 H 0.0 **** 0.06
29095 H 27.607813278061315 144.9149626654291 194.42152675078233 H 0.0 **** 0.06
29096 C 133.9306927585865 188.07418174253272 176.22795342292147 C 0.0 **** -0.24
29097 H 134.97085239887778 188.39396544026022 176.28276192735416 H 0.0 **** 0.06
29098 H 133.5335672468421 188.29764682559323 175.23764873635437 H 0.0 **** 0.06
29099 H 133.34846293534173 188.6040333739078 176.98202461950055 H 0.0 **** 0.06
29100 H 133.87029973750913 187.00046632248853 176.41005118794243 H 0.0 **** 0.06
29101 C 12.241869982764882 9.100866214106993 174.3662495824404 C 0.0 **** -0.24
29102 H 11.907162464028545 9.031204742096385 175.40136640863986 H 0.0 **** 0.06
29103 H 11.790665219423573 8.29730475551355 173.78447134393687 H 0.0 **** 0.06
29104 H 13.327397449214573 9.012052217677983 174.32940035668017 H 0.0 **** 0.06
29105 H 11.941837753685547 10.063726335005406 173.95261479930437 H 0.0 **** 0.06
29106 C 170.18752601487017 178.37206914204887 122.54661960415393 C 0.0 **** -0.24
29107 H 170.91776890061925 178.92562738070444 121.95582243085624 H 0.0 **** 0.06
29108 H 169.76170879251293 177.57123791982383 121.94053316656255 H 0.0 **** 0.06
29109 H 169.39393777304662 179.04667880243233 122.86720528886048 H 0.0 **** 0.06
29110 H 170.67694937359795 177.9453971578747 123.42221738824469 H 0.0 **** 0.06
29111 C 119.67990704037865 41.23112321464612 101.41549922316096 C 0.0 **** -0.24
29112 H 119.48528928458282 40.190339411120135 101.67537745904485 H 0.0 **** 0.06
29113 H 119.42987060661864 41.86969107047986 102.26363104682832 H 0.0 **** 0.06
29114 H 119.07154332823467 41.51130972306402 100.55624153693225 H 0.0 **** 0.06
29115 H 120.73577906533231 41.35180655826201 101.16875739940616 H 0.0 **** 0.06
29116 C 139.04793904431926 177.4090320824986 65.60604573606302 C 0.0 **** -0.24
29117 H 140.081790219809 177.75258962142655 65.59858775360229 H 0.0 **** 0.06
29118 H 138.4252259573202 178.14277453222175 66.11699396432914 H 0.0 **** 0.06
29119 H 138.98581085930013 176.45311317923304 66.1276517714719 H 0.0 **** 0.06
29120 H 138.69838857101237 177.28640768011292 64.58135193506311 H 0.0 **** 0.06
29121 C 20.2732185586338 184.25328796063434 135.4771555826543 C 0.0 **** -0.24
29122 H 19.575478142699524 184.07427974077189 136.29517578426396 H 0.0 **** 0.06
29123 H 21.1757486863047 183.66175333993283 135.63296911715088 H 0.0 **** 0.06
29124 H 20.53304321021332 185.31188388122598 135.4461954294881 H 0.0 **** 0.06
29125 H 19.808429040968747 183.9666137112684 134.5345431322355 H 0.0 **** 0.06
29126 C 168.2828780941605 4.26749235974151 6.541612805779778 C 0.0 **** -0.24
29127 H 169.09904424859852 4.727257320032081 7.098454489532486 H 0.0 **** 0.06
29128 H 167.78453405743582 3.529680107334478 7.171016491844966 H 0.0 **** 0.06
29129 H 168.6810554774625 3.7773944463473654 5.652664265187184 H 0.0 **** 0.06
29130 H 167.56895951137227 5.034389488763402 6.243980992808048 H 0.0 **** 0.06
29131 C 86.94720860421774 189.72806235842435 17.651932052774413 C 0.0 **** -0.24
29132 H 85.87954140261854 189.5368709048513 17.75722804134446 H 0.0 **** 0.06
29133 H 87.11747156304074 190.80214626375005 17.572995443716792 H 0.0 **** 0.06
29134 H 87.31768712200324 189.23437300601353 16.753749908032447 H 0.0 **** 0.06
29135 H 87.47413432920845 189.3388592590827 18.523754818003923 H 0.0 **** 0.06
29136 C 67.76135118887254 116.76356078563654 64.45628231497442 C 0.0 **** -0.24
29137 H 67.06069944048238 117.47082847573739 64.01292330037836 H 0.0 **** 0.06
29138 H 68.29300323609795 117.24561633331206 65.27740000271552 H 0.0 **** 0.06
29139 H 68.47715136457612 116.43926450160407 63.70118914036267 H 0.0 **** 0.06
29140 H 67.21545066026727 115.89982365900829 64.83434242527439 H 0.0 **** 0.06
29141 C 5.32096264943366 191.63353046440062 77.5592402982171 C 0.0 **** -0.24
29142 H 5.509272357656151 192.40184770818962 78.30925880018145 H 0.0 **** 0.06
29143 H 5.605658993425891 190.65975315435458 77.95714281653336 H 0.0 **** 0.06
29144 H 5.908664544328332 191.84674224945718 76.66638258356934 H 0.0 **** 0.06
29145 H 4.261207467769864 191.62793868594702 77.30483046439562 H 0.0 **** 0.06
29146 C 85.97181639617148 59.50801276274211 92.68593803042066 C 0.0 **** -0.24
29147 H 85.77324090339735 59.055572542573884 91.71463720603592 H 0.0 **** 0.06
29148 H 86.50775665971125 58.79651820134089 93.31500339160283 H 0.0 **** 0.06
29149 H 85.02753327230349 59.77405892484825 93.1624341312966 H 0.0 **** 0.06
29150 H 86.57701248973646 60.40448230377842 92.55268742651108 H 0.0 **** 0.06
29151 C 40.70137849486059 132.68674862609436 35.25388831782679 C 0.0 **** -0.24
29152 H 39.88016227977761 131.99212949837585 35.07662049096213 H 0.0 **** 0.06
29153 H 40.86214526919923 132.7916326649986 36.32760713573458 H 0.0 **** 0.06
29154 H 40.45521114064502 133.65861524277972 34.826693297990104 H 0.0 **** 0.06
29155 H 41.60797770129625 132.30265973212693 34.786104942392825 H 0.0 **** 0.06
29156 C 165.076083851779 172.79851533710092 112.36447829714538 C 0.0 **** -0.24
29157 H 164.5609629534591 173.1534989943956 111.47293485756617 H 0.0 **** 0.06
29158 H 165.39304760733478 173.6522750230178 112.96520128231137 H 0.0 **** 0.06
29159 H 165.9496197704358 172.2159752211269 112.07200318478391 H 0.0 **** 0.06
29160 H 164.40159265817783 172.17332470712537 112.94982007362623 H 0.0 **** 0.06
29161 C 77.69599681879482 111.45086682539949 157.38665598344176 C 0.0 **** -0.24
29162 H 78.14301688034413 110.67475172208916 158.00684149232086 H 0.0 **** 0.06
29163 H 78.47178609508299 111.92375390270271 156.78242047750672 H 0.0 **** 0.06
29164 H 77.22515397293456 112.19888995114738 158.02317468946762 H 0.0 **** 0.06
29165 H 76.94645843329847 111.00582838466028 156.73244220180106 H 0.0 **** 0.06
29166 C 185.31752463918548 148.5111104923922 132.52160647122295 C 0.0 **** -0.24
29167 H 184.59560112393723 148.75709316143622 133.2998928144459 H 0.0 **** 0.06
29168 H 184.78682622979233 148.2241622269456 131.6131684721567 H 0.0 **** 0.06
29169 H 185.94387147189752 147.68336130004317 132.85354711738123 H 0.0 **** 0.06
29170 H 185.9426339226676 149.38116481604348 132.31813027415782 H 0.0 **** 0.06
29171 C 76.91553347193559 96.63309429931553 32.16663016539326 C 0.0 **** -0.24
29172 H 76.12225521078727 96.89712982326813 32.86632619592103 H 0.0 **** 0.06
29173 H 77.37750157897574 95.69643720448062 32.478166087048066 H 0.0 **** 0.06
29174 H 77.66662496913932 97.42296715542409 32.15513591448433 H 0.0 **** 0.06
29175 H 76.49449023829175 96.51746595048087 31.167772133260286 H 0.0 **** 0.06
29176 C 128.7439446706711 198.31571237246038 177.2696198144373 C 0.0 **** -0.24
29177 H 128.43962527094448 198.73647975988558 178.22796431954848 H 0.0 **** 0.06
29178 H 129.19480175714193 197.3359015059146 177.42981111979768 H 0.0 **** 0.06
29179 H 129.46975022109757 198.97711920795822 176.79625738661846 H 0.0 **** 0.06
29180 H 127.87044232749349 198.2132523488574 176.62525090176212 H 0.0 **** 0.06
29181 C 67.48448288723358 121.89421804256813 49.62044197182253 C 0.0 **** -0.24
29182 H 68.47947957383076 122.20925768919466 49.93495476786558 H 0.0 **** 0.06
29183 H 67.42564937219595 120.80643873396318 49.63894746426618 H 0.0 **** 0.06
29184 H 67.2932842151559 122.2523185310481 48.60857103011239 H 0.0 **** 0.06
29185 H 66.74065491458981 122.31020457394061 50.30067050352531 H 0.0 **** 0.06
29186 C 191.05473800999965 120.49878107615257 152.87889205833886 C 0.0 **** -0.24
29187 H 190.67030254644277 120.02567598512371 151.97574610556273 H 0.0 **** 0.06
29188 H 192.11811847211015 120.27808186042662 152.98072314012833 H 0.0 **** 0.06
29189 H 190.519428079097 120.11498597897906 153.74641972250345 H 0.0 **** 0.06
29190 H 190.91223415881728 121.57712732132055 152.81227600259456 H 0.0 **** 0.06
29191 C 10.083507900186817 183.23394128954976 62.63842309073553 C 0.0 **** -0.24
29192 H 11.08514162312099 182.88206567505074 62.38846279189988 H 0.0 **** 0.06
29193 H 9.546388332441154 182.450436904801 63.173478362115276 H 0.0 **** 0.06
29194 H 9.547701293430237 183.48262384486117 61.72250664072959 H 0.0 **** 0.06
29195 H 10.157427713137906 184.12003488807602 63.26838869681791 H 0.0 **** 0.06
29196 C 41.78732410420929 30.19255502953088 198.88868399342854 C 0.0 **** -0.24
29197 H 41.88957763669612 29.287796743263257 199.48785537101864 H 0.0 **** 0.06
29198 H 42.759840542117104 30.675777503862292 198.7910186649748 H 0.0 **** 0.06
29199 H 41.09061338013311 30.873914388075647 199.37759941210817 H 0.0 **** 0.06
29200 H 41.40879876699512 29.932784864890024 197.90044885077734 H 0.0 **** 0.06
29201 C 154.45991415108267 182.60222439139318 111.55814883852725 C 0.0 **** -0.24
29202 H 153.86727212064062 182.51416878112923 112.46891572617758 H 0.0 **** 0.06
29203 H 153.7991226121544 182.79235475289912 110.71234586402304 H 0.0 **** 0.06
29204 H 155.00836935633225 181.67528818707285 111.39056052379584 H 0.0 **** 0.06
29205 H 155.16403252381474 183.4272553027851 111.66257095676369 H 0.0 **** 0.06
29206 C 149.29466232783008 47.71318018526327 7.874707139138387 C 0.0 **** -0.24
29207 H 149.15703492044517 46.63360454806465 7.8294325606634345 H 0.0 **** 0.06
29208 H 149.6805817300263 47.98931474571988 8.856656032963464 H 0.0 **** 0.06
29209 H 148.33836005381144 48.209028574129476 7.707772956231352 H 0.0 **** 0.06
29210 H 150.0029862814094 48.02179158349591 7.105896458593556 H 0.0 **** 0.06
29211 C 149.34664913964016 171.34696035296824 57.40457292299328 C 0.0 **** -0.24
29212 H 150.08696138995927 170.9542041794337 58.1027935757229 H 0.0 **** 0.06
29213 H 148.8892460951753 170.5222869708513 56.85912638824746 H 0.0 **** 0.06
29214 H 149.83357527830765 172.02328827154417 56.70219328277051 H 0.0 **** 0.06
29215 H 148.57824718812188 171.88850457113296 57.95696227759868 H 0.0 **** 0.06
29216 C 122.2933722581979 24.96247471004756 99.99471233389613 C 0.0 **** -0.24
29217 H 121.26224605538133 24.808436511966022 100.31071651385011 H 0.0 **** 0.06
29218 H 122.63198256845891 24.09697468071934 99.42563551271695 H 0.0 **** 0.06
29219 H 122.92712478572906 25.091100856124484 100.87276913947602 H 0.0 **** 0.06
29220 H 122.35214218011365 25.85428597157562 99.37016572365272 H 0.0 **** 0.06
29221 C 10.767478362778483 63.75272378231665 121.92666634652011 C 0.0 **** -0.24
29222 H 11.33497079321026 62.82833701292218 121.81427352022394 H 0.0 **** 0.06
29223 H 9.816059211719036 63.65983718818602 121.40329233658292 H 0.0 **** 0.06
29224 H 11.335891241416597 64.58070528163012 121.50471245326054 H 0.0 **** 0.06
29225 H 10.58421515388003 63.939229195908766 122.98524748555582 H 0.0 **** 0.06
29226 C 176.66032172079878 97.13266081122353 150.5814566878708 C 0.0 **** -0.24
29227 H 176.44511047363613 96.56722429996805 151.48854012890703 H 0.0 **** 0.06
29228 H 176.96926777888746 96.44718745543958 149.79198958636644 H 0.0 **** 0.06
29229 H 177.46124414017694 97.84564421318908 150.77920563683392 H 0.0 **** 0.06
29230 H 175.7653748392588 97.66907783888846 150.2677155326689 H 0.0 **** 0.06
29231 C 8.027584715354138 173.2549479754241 150.30384111642354 C 0.0 **** -0.24
29232 H 8.330091954356085 173.96431436976155 151.07414259681747 H 0.0 **** 0.06
29233 H 8.889778388949082 172.66083539770622 150.0000122030604 H 0.0 **** 0.06
29234 H 7.639243207184123 173.79830072237183 149.4426138872808 H 0.0 **** 0.06
29235 H 7.253418819021235 172.59742794944373 150.69850584514904 H 0.0 **** 0.06
29236 C 129.82199349578482 65.01357176827005 109.47567576132374 C 0.0 **** -0.24
29237 H 129.2968414981173 65.38289902112444 108.59490085323111 H 0.0 **** 0.06
29238 H 130.7098742056742 65.62114952128682 109.6494480037747 H 0.0 **** 0.06
29239 H 130.11605417913026 63.97691422950919 109.31340398204321 H 0.0 **** 0.06
29240 H 129.16468690511954 65.07373587429959 110.34259155271454 H 0.0 **** 0.06
29241 C 181.559155137903 134.85573664731692 44.04007967599807 C 0.0 **** -0.24
29242 H 180.91907428551437 135.5909294750329 43.55191710089491 H 0.0 **** 0.06
29243 H 182.59754913893244 135.1830937862925 43.98419681500991 H 0.0 **** 0.06
29244 H 181.45399996658824 133.893226811075 43.539400248894026 H 0.0 **** 0.06
29245 H 181.26528833283885 134.75538955934235 45.08543964700459 H 0.0 **** 0.06
29246 C 132.24977918557087 52.514011620334884 184.4802739222032 C 0.0 **** -0.24
29247 H 132.8096112164773 53.394877927640096 184.7935155449611 H 0.0 **** 0.06
29248 H 131.86756733265216 52.665873474487455 183.47100153474628 H 0.0 **** 0.06
29249 H 131.4167817970503 52.35105045852029 185.16366669291028 H 0.0 **** 0.06
29250 H 132.90577337293806 51.6432282590647 184.4936776784707 H 0.0 **** 0.06
29251 C 132.44869326784814 143.31555673564512 39.54163042970151 C 0.0 **** -0.24
29252 H 131.95736820030683 144.28475656261793 39.45159114925224 H 0.0 **** 0.06
29253 H 133.37552659959076 143.42859936010092 40.10254128375158 H 0.0 **** 0.06
29254 H 132.66996043236722 142.9280731164446 38.54621342703331 H 0.0 **** 0.06
29255 H 131.78988439191593 142.62170325212804 40.06270515226572 H 0.0 **** 0.06
29256 C 140.48321227334637 99.69303184153642 98.25370702836682 C 0.0 **** -0.24
29257 H 140.86135074944778 99.93265998974081 97.25965655911344 H 0.0 **** 0.06
29258 H 141.03228115636776 98.8407221587482 98.65505509154966 H 0.0 **** 0.06
29259 H 139.42428911519775 99.44580898468894 98.18932338388763 H 0.0 **** 0.06
29260 H 140.61731981707607 100.55281281788211 98.9102788263634 H 0.0 **** 0.06
29261 C 171.95088889710442 115.15725184832104 48.29330338802595 C 0.0 **** -0.24
29262 H 172.71032057235212 115.33609912884782 49.054137044060695 H 0.0 **** 0.06
29263 H 171.3345737145817 114.30751661302253 48.58791384391213 H 0.0 **** 0.06
29264 H 172.43529573382537 114.94324483376624 47.341237387086494 H 0.0 **** 0.06
29265 H 171.3246317182718 116.04297180863887 48.190771632370854 H 0.0 **** 0.06
29266 C 131.23732043794942 159.9423978445727 126.24295092353304 C 0.0 **** -0.24
29267 H 130.79892914130573 159.8066130090305 125.25357472521864 H 0.0 **** 0.06
29268 H 132.3225209511135 160.00323357879 126.15307561604942 H 0.0 **** 0.06
29269 H 130.97099177740233 159.09783194041296 126.87696048112309 H 0.0 **** 0.06
29270 H 130.85649441107358 160.86369975715303 126.68542017437733 H 0.0 **** 0.06
29271 C 62.41347443391027 106.90540815867789 132.32235570553632 C 0.0 **** -0.24
29272 H 62.35528602308813 106.71211855228373 131.25069487157327 H 0.0 **** 0.06
29273 H 61.41595566405999 107.1124875225191 132.70916588018878 H 0.0 **** 0.06
29274 H 63.05930782755263 107.76460036421003 132.5008007768073 H 0.0 **** 0.06
29275 H 62.82428232496437 106.03106508554228 132.82646455637973 H 0.0 **** 0.06
29276 C 83.38597396447119 153.75043068991278 23.368054949296464 C 0.0 **** -0.24
29277 H 84.16424915408297 154.44184833551725 23.04580808685111 H 0.0 **** 0.06
29278 H 82.42599405045618 154.07017970638734 22.96227320843923 H 0.0 **** 0.06
29279 H 83.33593769740506 153.74197418562056 24.456604226613507 H 0.0 **** 0.06
29280 H 83.61843548179223 152.74785350262363 23.006853699819032 H 0.0 **** 0.06
29281 C 44.51233506968407 6.083470563196904 126.62357468832724 C 0.0 **** -0.24
29282 H 45.2578722319458 5.518436580648128 127.1820955899143 H 0.0 **** 0.06
29283 H 43.63603434034505 5.456144058134434 126.4515245976452 H 0.0 **** 0.06
29284 H 44.931902196322184 6.392655787676567 125.66659475578649 H 0.0 **** 0.06
29285 H 44.22159522096531 6.9651519475641805 127.19422251913608 H 0.0 **** 0.06
29286 C 84.04685518586143 144.69991623765645 63.819511926371945 C 0.0 **** -0.24
29287 H 84.26021471617332 143.9796212786024 63.02988697757024 H 0.0 **** 0.06
29288 H 84.97797954955917 145.14998638984756 64.16264009815382 H 0.0 **** 0.06
29289 H 83.55988139624992 144.19180819634684 64.65164077542812 H 0.0 **** 0.06
29290 H 83.38694156266286 145.4765925880433 63.43318753431447 H 0.0 **** 0.06
29291 C 54.7998399546817 110.65283920931452 33.51372208448515 C 0.0 **** -0.24
29292 H 55.20542085137572 111.66297405401718 33.46506619730158 H 0.0 **** 0.06
29293 H 55.61505363393309 109.93106487871441 33.46530565869807 H 0.0 **** 0.06
29294 H 54.12198880423186 110.49294008806478 32.67549671986933 H 0.0 **** 0.06
29295 H 54.25621518541355 110.52497784065278 34.45010409821293 H 0.0 **** 0.06
29296 C 92.02708262069379 83.78881924178214 74.37730010936845 C 0.0 **** -0.24
29297 H 92.71644288998434 82.96131287868818 74.54054008213676 H 0.0 **** 0.06
29298 H 91.82233139842066 84.28436814820748 75.3271879642717 H 0.0 **** 0.06
29299 H 91.09522924553636 83.4093989278627 73.9577238941403 H 0.0 **** 0.06
29300 H 92.47346924228762 84.50234656470812 73.68455092693831 H 0.0 **** 0.06
29301 C 142.92228625652695 163.06675942581396 0.2661690478428227 C 0.0 **** -0.24
29302 H 142.7900885212227 162.32158393332026 1.0505337105417993 H 0.0 **** 0.06
29303 H 142.36237495079797 162.76467214778054 -0.6192107014425687 H 0.0 **** 0.06
29304 H 143.98039497835273 163.1486631410938 0.01784789771070905 H 0.0 **** 0.06
29305 H 142.5546625684002 164.03169801021954 0.6172902030889702 H 0.0 **** 0.06
29306 C 1.8151075746534175 131.91815767599735 53.823004515284936 C 0.0 **** -0.24
29307 H 1.517901010329524 132.86374480653018 53.370009029963796 H 0.0 **** 0.06
29308 H 1.6236443565582164 131.9522366403492 54.89578415483663 H 0.0 **** 0.06
29309 H 2.8775766377161887 131.74951768967526 53.648294123696076 H 0.0 **** 0.06
29310 H 1.2409417524764805 131.1049793962307 53.377447105563846 H 0.0 **** 0.06
29311 C 196.53716093504488 61.376605837513296 1.9366997639251338 C 0.0 **** -0.24
29312 H 196.23173551442292 60.677832618060336 1.1584260558083486 H 0.0 **** 0.06
29313 H 195.65292805100725 61.83072517653045 2.3848086035620213 H 0.0 **** 0.06
29314 H 197.16464340782636 62.15383792794802 1.5008010366531437 H 0.0 **** 0.06
29315 H 197.09914944444435 60.84328858999288 2.7034104728413126 H 0.0 **** 0.06
29316 C 126.70527146241048 151.4264323595837 194.7424581353004 C 0.0 **** -0.24
29317 H 125.63374903393125 151.22798658696485 194.74928688390438 H 0.0 **** 0.06
29318 H 127.0990268275292 151.3265807209746 195.75421406297212 H 0.0 **** 0.06
29319 H 126.8841974691492 152.4394127626847 194.3810983660452 H 0.0 **** 0.06
29320 H 127.20199652869317 150.71287669729918 194.08573506748166 H 0.0 **** 0.06
29321 C 65.56654949102187 146.2968920500751 191.5010994188923 C 0.0 **** -0.24
29322 H 64.62420388808891 146.76516595588632 191.21840704752015 H 0.0 **** 0.06
29323 H 65.63516319720156 146.24754111829918 192.58842612036534 H 0.0 **** 0.06
29324 H 66.3956649108685 146.88569545872005 191.11031965817133 H 0.0 **** 0.06
29325 H 65.60884334551513 145.28910062645156 191.08802030067196 H 0.0 **** 0.06
29326 C 64.93360081743953 93.69447291996829 78.14117395018837 C 0.0 **** -0.24
29327 H 64.37274152401346 92.81921588659884 78.46980546481072 H 0.0 **** 0.06
29328 H 66.00194204290392 93.4941979398946 78.22778607005795 H 0.0 **** 0.06
29329 H 64.67139072388949 94.54955142148606 78.76481753547324 H 0.0 **** 0.06
29330 H 64.68805681967899 93.91399854187785 77.1020318361865 H 0.0 **** 0.06
29331 C 48.9962813536942 17.00254317728337 153.80063570357012 C 0.0 **** -0.24
29332 H 48.30281775298164 16.83745583226687 154.62515136898537 H 0.0 **** 0.06
29333 H 48.78223883627987 16.294045939822865 152.9992486630661 H 0.0 **** 0.06
29334 H 50.0182587132212 16.85758461372103 154.1512836471504 H 0.0 **** 0.06
29335 H 48.88039645458275 18.020146409827362 153.4265153337604 H 0.0 **** 0.06
29336 C 136.2565840262818 173.9965399338236 54.994107023239906 C 0.0 **** -0.24
29337 H 136.09548236101344 173.78928677052482 56.05248081488793 H 0.0 **** 0.06
29338 H 137.23881340802077 174.44971233856586 54.859467136354766 H 0.0 **** 0.06
29339 H 135.4883723925029 174.681798872513 54.637236272079505 H 0.0 **** 0.06
29340 H 136.20447092537378 173.06579925239 54.429516301119975 H 0.0 **** 0.06
29341 C 8.510149732708626 62.55795158037813 153.54007759416396 C 0.0 **** -0.24
29342 H 8.125162981687566 63.35770091826603 152.90647842632634 H 0.0 **** 0.06
29343 H 9.533863171813039 62.32423830083235 153.24689916744637 H 0.0 **** 0.06
29344 H 7.886736903360216 61.67210998555612 153.42467497458307 H 0.0 **** 0.06
29345 H 8.49466034825852 62.88077598508539 154.5813326912716 H 0.0 **** 0.06
29346 C 41.35325947454287 48.23229689491427 102.28639975613271 C 0.0 **** -0.24
29347 H 41.30368724565989 48.06892329550503 103.3626661406334 H 0.0 **** 0.06
29348 H 40.41140670003753 47.92870068866203 101.82909856098729 H 0.0 **** 0.06
29349 H 42.167648114401274 47.64215109949757 101.86619175384996 H 0.0 **** 0.06
29350 H 41.530295838072874 49.289412495992465 102.08764256906036 H 0.0 **** 0.06
29351 C 142.72049578036754 71.73672378785113 170.89045296275822 C 0.0 **** -0.24
29352 H 142.1544637680937 72.64008152136489 170.66519704397317 H 0.0 **** 0.06
29353 H 143.4685992886302 71.9563438764208 171.65258408904165 H 0.0 **** 0.06
29354 H 143.21580140639847 71.38316279167907 169.98560951653988 H 0.0 **** 0.06
29355 H 142.04248722343073 70.96547265923788 171.2579346729492 H 0.0 **** 0.06
29356 C 49.81777511387301 181.4004776370048 162.77169435057635 C 0.0 **** -0.24
29357 H 49.16734898895996 182.19393352288333 162.4041616486574 H 0.0 **** 0.06
29358 H 49.24385633819537 180.47855539254158 162.87277020079028 H 0.0 **** 0.06
29359 H 50.223199288782624 181.68405762161586 163.74239785337863 H 0.0 **** 0.06
29360 H 50.63447139911554 181.2455669945358 162.0673439184873 H 0.0 **** 0.06
29361 C 83.06589980658453 100.76094118272613 79.39924413400234 C 0.0 **** -0.24
29362 H 83.45820439452967 101.77155768404367 79.51000544141206 H 0.0 **** 0.06
29363 H 83.87864003044604 100.04229734281978 79.50858790647865 H 0.0 **** 0.06
29364 H 82.61306197949921 100.65223621186539 78.41447625143232 H 0.0 **** 0.06
29365 H 82.3128334719562 100.57804398581843 80.16675727820089 H 0.0 **** 0.06
29366 C 187.64392962663595 184.00997726020572 20.641474285219886 C 0.0 **** -0.24
29367 H 186.94186209904487 184.7743084947077 20.973634816449902 H 0.0 **** 0.06
29368 H 188.17644564170644 184.3656497725612 19.757630685847943 H 0.0 **** 0.06
29369 H 187.09995283572405 183.09850413164168 20.395383548155877 H 0.0 **** 0.06
29370 H 188.3585324092654 183.80336551857388 21.438169416928417 H 0.0 **** 0.06
29371 C 194.7849504392928 120.37096516416258 110.01156346611705 C 0.0 **** -0.24
29372 H 195.22407965891804 120.99870744381971 110.78645689425937 H 0.0 **** 0.06
29373 H 193.79462376189753 120.74788849986749 109.75692343821632 H 0.0 **** 0.06
29374 H 194.70195833637374 119.34775976208383 110.37775835240726 H 0.0 **** 0.06
29375 H 195.42033411359247 120.38918122404377 109.12580026122617 H 0.0 **** 0.06
29376 C 87.00604375599238 156.10638178674077 90.01569478653616 C 0.0 **** -0.24
29377 H 87.20989366650375 155.76961212056386 91.03207861470037 H 0.0 **** 0.06
29378 H 85.93151564679397 156.08329143475424 89.83463994212579 H 0.0 **** 0.06
29379 H 87.50844454766758 155.44641805617954 89.3078296713521 H 0.0 **** 0.06
29380 H 87.37499180993049 157.1231340583214 89.88928756295735 H 0.0 **** 0.06
29381 C 68.02597816076845 194.5089896972066 132.4763338232559 C 0.0 **** -0.24
29382 H 68.34051672801324 193.6886624816129 131.83175689599216 H 0.0 **** 0.06
29383 H 67.44064105289931 194.1125781518878 133.30703778772684 H 0.0 **** 0.06
29384 H 67.41677306423136 195.20739537873482 131.9036835729383 H 0.0 **** 0.06
29385 H 68.90425722730394 195.02400496745614 132.86299231879684 H 0.0 **** 0.06
29386 C 105.39384685996191 138.36614891149065 160.04709330870878 C 0.0 **** -0.24
29387 H 105.32469574485378 139.44226661494724 159.8875611885307 H 0.0 **** 0.06
29388 H 105.74655373440436 137.88613955290225 159.13332058245575 H 0.0 **** 0.06
29389 H 104.41113539296796 137.97338296899193 160.30717744738928 H 0.0 **** 0.06
29390 H 106.0926490981121 138.1629725149357 160.85835248954322 H 0.0 **** 0.06
29391 C 136.27674205609466 139.76247062249908 108.06628563000913 C 0.0 **** -0.24
29392 H 137.30967786010945 139.94066909056394 107.76648465656339 H 0.0 **** 0.06
29393 H 135.60988037058303 140.3613981641208 107.44529771145409 H 0.0 **** 0.06
29394 H 136.14888657347075 140.04030835127946 109.1118102941112 H 0.0 **** 0.06
29395 H 136.0393604845795 138.70536005837542 107.93962874952962 H 0.0 **** 0.06
29396 C 143.12933290326757 172.7390833507808 18.607783675249692 C 0.0 **** -0.24
29397 H 144.071640139414 172.76398433401926 18.060382818089835 H 0.0 **** 0.06
29398 H 142.94102783071386 171.72481125667048 18.96085026604112 H 0.0 **** 0.06
29399 H 142.318629378775 173.05112266402142 17.949697103649896 H 0.0 **** 0.06
29400 H 143.18712097064378 173.41556451553492 19.459895424272162 H 0.0 **** 0.06
29401 C 32.60752450940441 78.11500830743687 116.88560099463999 C 0.0 **** -0.24
29402 H 33.54373701551637 77.95569178219878 117.4206590025486 H 0.0 **** 0.06
29403 H 32.735358434891566 78.92147160006164 116.16341325498084 H 0.0 **** 0.06
29404 H 31.82491412581504 78.38293737150741 117.59482427986885 H 0.0 **** 0.06
29405 H 32.32750048894765 77.20000425628174 116.3634747454256 H 0.0 **** 0.06
29406 C 120.2801183803052 172.75861035633224 165.11662211790684 C 0.0 **** -0.24
29407 H 119.54795919723546 172.1076794313914 164.64056696661777 H 0.0 **** 0.06
29408 H 119.7637675596948 173.52999265597447 165.68788988164414 H 0.0 **** 0.06
29409 H 120.90122872996025 173.226868484919 164.35252202107017 H 0.0 **** 0.06
29410 H 120.90839588344508 172.1709772641422 165.7857756160414 H 0.0 **** 0.06
29411 C 46.94364332360652 151.16159594279915 179.2538913974214 C 0.0 **** -0.24
29412 H 47.568985981664056 151.66750734338052 178.5190527259992 H 0.0 **** 0.06
29413 H 46.76389274654855 151.82744843685302 180.097680979476 H 0.0 **** 0.06
29414 H 47.44919734515591 150.26107343995062 179.60258759149733 H 0.0 **** 0.06
29415 H 45.99249722105745 150.89035455101248 178.7962442927132 H 0.0 **** 0.06
29416 C 117.09723935589264 82.8166783955391 116.51882049700814 C 0.0 **** -0.24
29417 H 118.06962662857376 82.51068964397214 116.90653635710342 H 0.0 **** 0.06
29418 H 116.30879438875434 82.39329837606834 117.14237451240683 H 0.0 **** 0.06
29419 H 116.98561086612841 82.45674741757708 115.495738160722 H 0.0 **** 0.06
29420 H 117.02756573400166 83.90438397427985 116.53185289025961 H 0.0 **** 0.06
29421 C 66.05234046620501 146.04579813636778 36.821679301111715 C 0.0 **** -0.24
29422 H 65.08843344338811 146.48567061233177 37.07662660505906 H 0.0 **** 0.06
29423 H 66.30225101430995 146.2906241190807 35.78897864023617 H 0.0 **** 0.06
29424 H 65.99787604740624 144.962329059839 36.93597763556551 H 0.0 **** 0.06
29425 H 66.82039012910741 146.44237140672624 37.485185912955416 H 0.0 **** 0.06
29426 C 125.7772868337239 60.51936158200499 77.81124088132468 C 0.0 **** -0.24
29427 H 124.90633004436597 61.035397562618414 77.40696891311687 H 0.0 **** 0.06
29428 H 125.45704748056815 59.80677935571373 78.57060376235017 H 0.0 **** 0.06
29429 H 126.4560150502491 61.246488805122965 78.2572461461454 H 0.0 **** 0.06
29430 H 126.29068379614134 59.989280838043385 77.00817321545061 H 0.0 **** 0.06
29431 C 56.41684641902856 32.86314245025659 69.78732618588057 C 0.0 **** -0.24
29432 H 57.16662403746432 32.16526346001666 69.41662672788024 H 0.0 **** 0.06
29433 H 56.36449957776324 33.72721207635294 69.12349472124089 H 0.0 **** 0.06
29434 H 56.69001375927451 33.19163247691927 70.79028161677735 H 0.0 **** 0.06
29435 H 55.44481972613738 32.37017055432801 69.81870319101203 H 0.0 **** 0.06
29436 C 179.45463722308216 188.8127587467294 89.3076020073351 C 0.0 **** -0.24
29437 H 178.5938426674702 188.19119564142858 89.05953198176712 H 0.0 **** 0.06
29438 H 180.34057953515816 188.424348149235 88.80564274455304 H 0.0 **** 0.06
29439 H 179.61340336171014 188.7986033581712 90.38615225325509 H 0.0 **** 0.06
29440 H 179.26981256537 189.83571329453568 88.98102812156827 H 0.0 **** 0.06
29441 C 177.61378777509543 121.02284796334524 167.3974469305653 C 0.0 **** -0.24
29442 H 177.47645160163506 122.05228712004129 167.72809247611232 H 0.0 **** 0.06
29443 H 176.7907961875383 120.4092387499434 167.76494697050077 H 0.0 **** 0.06
29444 H 178.55664468011014 120.63878097983377 167.7880990938161 H 0.0 **** 0.06
29445 H 177.63314686451162 120.99037520600069 166.30768436574593 H 0.0 **** 0.06
29446 C 67.67754313476621 176.7486952557121 92.44101775175454 C 0.0 **** -0.24
29447 H 68.66396997995031 176.62261454469964 92.88562137681532 H 0.0 **** 0.06
29448 H 66.96372651095504 176.1025428737744 92.95344495850637 H 0.0 **** 0.06
29449 H 67.71791534408692 176.4805682677363 91.38591744546804 H 0.0 **** 0.06
29450 H 67.36326967934247 177.78744488554867 92.54040625319402 H 0.0 **** 0.06
29451 C 36.40276655422511 147.1748212208174 167.00609100786247 C 0.0 **** -0.24
29452 H 36.735884840422386 146.70003697591568 166.08452562333068 H 0.0 **** 0.06
29453 H 36.823845566532896 146.6449321639429 167.86047601141783 H 0.0 **** 0.06
29454 H 35.315012004731386 147.14359650944257 167.0584905733702 H 0.0 **** 0.06
29455 H 36.73769752773474 148.21253056348544 167.0217840193167 H 0.0 **** 0.06
29456 C 59.25774167781964 59.06659708792267 26.45923385597355 C 0.0 **** -0.24
29457 H 59.81771459581273 59.7825122803103 25.85834166037678 H 0.0 **** 0.06
29458 H 59.74040857433556 58.09031971006374 26.404435570177654 H 0.0 **** 0.06
29459 H 58.23947017196713 58.9899906208052 26.07759360885379 H 0.0 **** 0.06
29460 H 59.233307854196084 59.40159169226115 27.495516276621487 H 0.0 **** 0.06
29461 C 7.432683855882409 34.02830095515171 125.8535272034103 C 0.0 **** -0.24
29462 H 6.5616899703058 33.39838565479198 125.67110719098827 H 0.0 **** 0.06
29463 H 7.393442582258231 34.41520255408682 126.87218856757673 H 0.0 **** 0.06
29464 H 7.4351179978539506 34.85829138184181 125.14775909345124 H 0.0 **** 0.06
29465 H 8.340564651825417 33.43889007333809 125.72331596726522 H 0.0 **** 0.06
29466 C 123.32375399219282 157.1216564558719 144.64410467533435 C 0.0 **** -0.24
29467 H 123.175067041027 158.18040691030382 144.4299006456862 H 0.0 **** 0.06
29468 H 122.49516394779778 156.5479350443869 144.22967862773422 H 0.0 **** 0.06
29469 H 123.36734581059548 156.97210525616168 145.72225255173151 H 0.0 **** 0.06
29470 H 124.25838988437138 156.789009901026 144.19233293527398 H 0.0 **** 0.06
29471 C 153.64365752589254 24.07880351423637 17.874153251526465 C 0.0 **** -0.24
29472 H 152.76936207272104 24.515622128971415 17.39146531648825 H 0.0 **** 0.06
29473 H 154.44902806080307 23.980965475554456 17.14628396412411 H 0.0 **** 0.06
29474 H 153.38809542985535 23.094834549702313 18.266970980223405 H 0.0 **** 0.06
29475 H 153.96772221827268 24.723513505062215 18.691030097856753 H 0.0 **** 0.06
29476 C 67.78833976902092 188.71576664745746 38.675651715953336 C 0.0 **** -0.24
29477 H 67.21845430872543 188.3418249599101 39.52688310779192 H 0.0 **** 0.06
29478 H 67.31754066107146 188.385191109643 37.750181737248255 H 0.0 **** 0.06
29479 H 68.80697774929456 188.32972232768395 38.72320324812755 H 0.0 **** 0.06
29480 H 67.81126268195533 189.80496810051582 38.704658765696465 H 0.0 **** 0.06
29481 C 44.97652811100755 150.2099943883721 100.3998676331855 C 0.0 **** -0.24
29482 H 45.67941306232413 150.5705352763666 99.64757132429668 H 0.0 **** 0.06
29483 H 44.985136134354505 149.12022648227023 100.41163575584477 H 0.0 **** 0.06
29484 H 43.97467045790714 150.56399426514147 100.15914374923196 H 0.0 **** 0.06
29485 H 45.26986479890088 150.58689205005575 101.37957800813308 H 0.0 **** 0.06
29486 C 77.48311454298502 160.65748800504312 133.20036563498698 C 0.0 **** -0.24
29487 H 78.03720310592867 160.254216180454 132.35281069290187 H 0.0 **** 0.06
29488 H 77.91431099791396 161.61427673350335 133.494944367675 H 0.0 **** 0.06
29489 H 77.54144988962773 159.96008323863794 134.03677180932536 H 0.0 **** 0.06
29490 H 76.44019295000793 160.79983304903573 132.9172982912464 H 0.0 **** 0.06
29491 C 45.383369569195736 166.20286339500245 30.617985751471195 C 0.0 **** -0.24
29492 H 46.257548696388 165.7025363477208 30.20276730754489 H 0.0 **** 0.06
29493 H 44.50876658982608 165.97186548259765 30.009745438437164 H 0.0 **** 0.06
29494 H 45.54996995858217 167.2807929693568 30.621125785196682 H 0.0 **** 0.06
29495 H 45.21864884836343 165.85887774835552 31.63845212203188 H 0.0 **** 0.06
29496 C 187.9628984190298 123.01874201823887 131.6166520448703 C 0.0 **** -0.24
29497 H 187.1018627326762 123.55253367399717 132.01896622424556 H 0.0 **** 0.06
29498 H 188.85610583233864 123.2967570894757 132.17721590933752 H 0.0 **** 0.06
29499 H 188.09531591667417 123.28250031347719 130.56753582505405 H 0.0 **** 0.06
29500 H 187.79808832600798 121.94503612131908 131.70446977771473 H 0.0 **** 0.06
29501 C 96.52613524175231 175.27705549100295 158.65559907912746 C 0.0 **** -0.24
29502 H 95.67584683507644 175.0717919869044 158.00656274402422 H 0.0 **** 0.06
29503 H 97.40344371580608 175.4953715799063 158.04705688719514 H 0.0 **** 0.06
29504 H 96.72426470462739 174.40511897860367 159.2803223406499 H 0.0 **** 0.06
29505 H 96.3009705700633 176.13425729625902 159.2899275531317 H 0.0 **** 0.06
29506 C 148.21172621628102 107.04206060856566 104.55776845507188 C 0.0 **** -0.24
29507 H 147.60328813472924 106.1382465949186 104.52815412110093 H 0.0 **** 0.06
29508 H 147.96182183442514 107.61812794846773 105.44903099445318 H 0.0 **** 0.06
29509 H 148.0155772644953 107.64195972811481 103.66974689441264 H 0.0 **** 0.06
29510 H 149.2663262190986 106.76878920389774 104.58607474794809 H 0.0 **** 0.06
29511 C 76.573256473134 187.34010929658513 6.874545262369196 C 0.0 **** -0.24
29512 H 76.41907504288746 188.41760599861664 6.935304079056465 H 0.0 **** 0.06
29513 H 76.11574906449897 186.85984418859206 7.740006468102308 H 0.0 **** 0.06
29514 H 77.64268667096462 187.12660846455782 6.861693892779186 H 0.0 **** 0.06
29515 H 76.11620299872409 186.95861983753116 5.961886190834292 H 0.0 **** 0.06
29516 C 98.34740212919996 21.89290433591397 6.757551064339907 C 0.0 **** -0.24
29517 H 97.69685582014264 21.33243099694883 6.085334698513293 H 0.0 **** 0.06
29518 H 99.01025777466992 22.53118663735195 6.173242257834886 H 0.0 **** 0.06
29519 H 98.9409518984767 21.19758505231364 7.3508270877000825 H 0.0 **** 0.06
29520 H 97.73935657374619 22.50953757298761 7.420129176285059 H 0.0 **** 0.06
29521 C 160.77583068567296 123.2070160176795 188.6834984570437 C 0.0 **** -0.24
29522 H 161.0688185655673 124.2161313265326 188.39423201906965 H 0.0 **** 0.06
29523 H 161.62485417997277 122.53403970277176 188.5615120676427 H 0.0 **** 0.06
29524 H 159.95263252046465 122.8727066412111 188.05284032199472 H 0.0 **** 0.06
29525 H 160.45818777868095 123.20712752136089 189.72633816679235 H 0.0 **** 0.06
29526 C 162.10605249169117 137.8286310966804 12.870128490077697 C 0.0 **** -0.24
29527 H 161.20614783254436 138.18552890786748 13.370503577242623 H 0.0 **** 0.06
29528 H 162.64122390121005 138.6742920408593 12.437409381103741 H 0.0 **** 0.06
29529 H 161.82963987194108 137.1298861189626 12.080972493299136 H 0.0 **** 0.06
29530 H 162.74725945974123 137.32489644683199 13.593862364933543 H 0.0 **** 0.06
29531 C 192.06409184982272 9.035349297957566 116.44344138217997 C 0.0 **** -0.24
29532 H 192.28119643929114 9.809271630925025 117.18001351950335 H 0.0 **** 0.06
29533 H 191.2970202943867 8.366014019347489 116.83518266694625 H 0.0 **** 0.06
29534 H 192.9702299607602 8.46838993513768 116.23488097777465 H 0.0 **** 0.06
29535 H 191.70612367348778 9.500895130099053 115.52452486217501 H 0.0 **** 0.06
29536 C 136.20411805800154 77.2715529640485 57.231621357265 C 0.0 **** -0.24
29537 H 135.84806642655957 77.61070597117916 56.25870092801034 H 0.0 **** 0.06
29538 H 137.20249629650314 76.8465511947724 57.12400588430762 H 0.0 **** 0.06
29539 H 135.5256100661585 76.5129053125014 57.62186785693905 H 0.0 **** 0.06
29540 H 136.24159382757523 78.11528568496549 57.92025502750499 H 0.0 **** 0.06
29541 C 109.64265012530737 33.90822555378273 175.10718278419756 C 0.0 **** -0.24
29542 H 109.10941257487698 34.35159130052443 175.94846230015185 H 0.0 **** 0.06
29543 H 110.69428205665639 34.19096069660657 175.15359184145439 H 0.0 **** 0.06
29544 H 109.20986913968625 34.267208022907425 174.17320050595106 H 0.0 **** 0.06
29545 H 109.55580543272146 32.82235270910674 175.15440421964405 H 0.0 **** 0.06
29546 C 32.231195681160614 77.8544450241298 159.6588601425971 C 0.0 **** -0.24
29547 H 33.039921547235565 77.71690856971975 160.37747610876485 H 0.0 **** 0.06
29548 H 32.01747754309763 76.90588268375348 159.166718174833 H 0.0 **** 0.06
29549 H 32.53016378679553 78.59189711964268 158.91434812235025 H 0.0 **** 0.06
29550 H 31.338733555766908 78.203903529186 160.1793578093833 H 0.0 **** 0.06
29551 C 119.10173173449832 127.46757940601833 180.8805531995243 C 0.0 **** -0.24
29552 H 118.18488141480825 127.63797612747621 181.4442713173404 H 0.0 **** 0.06
29553 H 119.85399800416181 128.1980618933215 181.18062903827558 H 0.0 **** 0.06
29554 H 118.89780337805448 127.57231555526081 179.8155155382191 H 0.0 **** 0.06
29555 H 119.4709683267526 126.46265261799121 181.08379728783083 H 0.0 **** 0.06
29556 C 74.06488474412532 192.12825494508144 92.66446529033536 C 0.0 **** -0.24
29557 H 74.03373965271709 193.07163646654436 93.20938451892013 H 0.0 **** 0.06
29558 H 73.48194890061075 191.37985038150342 93.20162178675443 H 0.0 **** 0.06
29559 H 75.09830350324387 191.79232808374212 92.57899310442679 H 0.0 **** 0.06
29560 H 73.64476102749052 192.27023707509963 91.6684247118329 H 0.0 **** 0.06
29561 C 1.4338341067526414 191.95308693150858 107.5960942359037 C 0.0 **** -0.24
29562 H 1.7185949873719437 191.32647666766644 108.44165766552823 H 0.0 **** 0.06
29563 H 1.4648840889501855 191.36218765441208 106.67986028222393 H 0.0 **** 0.06
29564 H 2.1296942683976 192.78835325807842 107.51305511099895 H 0.0 **** 0.06
29565 H 0.4243368435124921 192.33353380467008 107.75002318682994 H 0.0 **** 0.06
29566 C 58.62305190253318 147.2143243716219 55.43564181534691 C 0.0 **** -0.24
29567 H 57.964311201318424 147.40000777307228 54.58690271533936 H 0.0 **** 0.06
29568 H 58.476596439193884 147.99154267686953 56.18675047574419 H 0.0 **** 0.06
29569 H 59.65978209131373 147.22429045073733 55.09971493672313 H 0.0 **** 0.06
29570 H 58.38991424241567 146.24211014766823 55.869163445002016 H 0.0 **** 0.06
29571 C 114.4678350621819 29.63171459740883 188.90110375136774 C 0.0 **** -0.24
29572 H 114.2615054271111 29.1124209958669 189.83667251259413 H 0.0 **** 0.06
29573 H 114.14399189938018 30.67019285960754 188.98326353191388 H 0.0 **** 0.06
29574 H 113.92710790371879 29.14619430567234 188.08823544385478 H 0.0 **** 0.06
29575 H 115.53794988104346 29.599226490917943 188.6962465300174 H 0.0 **** 0.06
29576 C 63.952468592753576 10.771169083698084 178.1212602613803 C 0.0 **** -0.24
29577 H 64.84471301350872 11.374842319952698 177.95131254021436 H 0.0 **** 0.06
29578 H 63.08168666689134 11.422463750069866 178.19427923471488 H 0.0 **** 0.06
29579 H 64.06653519803241 10.210458617373313 179.04968058229673 H 0.0 **** 0.06
29580 H 63.82051806930188 10.07733510094478 177.29177239566786 H 0.0 **** 0.06
29581 C 156.13250042433592 99.40348791616725 105.80829738620088 C 0.0 **** -0.24
29582 H 156.4269177767675 99.03685131738328 104.82589539688246 H 0.0 **** 0.06
29583 H 155.282604731599 100.07944564024817 105.70427243036704 H 0.0 **** 0.06
29584 H 156.9673054340342 99.93612551453688 106.26335063330527 H 0.0 **** 0.06
29585 H 155.85125351382706 98.56153100812224 106.44119187366877 H 0.0 **** 0.06
29586 C 10.93085610354808 162.513738312393 38.68156780980789 C 0.0 **** -0.24
29587 H 10.382872117535783 162.30564340843102 37.76195225433274 H 0.0 **** 0.06
29588 H 11.976876291515055 162.2348662135803 38.55227042796234 H 0.0 **** 0.06
29589 H 10.498937119415075 161.93787546290235 39.50038321237467 H 0.0 **** 0.06
29590 H 10.863179321385473 163.57710564932336 38.910155716334245 H 0.0 **** 0.06
29591 C 83.5018666105035 146.79116692275258 150.36728789954697 C 0.0 **** -0.24
29592 H 83.77549248528686 146.01359929951028 151.0809777272202 H 0.0 **** 0.06
29593 H 83.15894770269622 147.67387505416065 150.90729870103655 H 0.0 **** 0.06
29594 H 82.70290489658416 146.42724671455412 149.72220579757033 H 0.0 **** 0.06
29595 H 84.37000849571487 147.04980728280086 149.76149214042252 H 0.0 **** 0.06
29596 C 10.62734964682209 69.53576630464568 79.80107348347539 C 0.0 **** -0.24
29597 H 11.576341326805021 69.70238648425237 80.31167529520962 H 0.0 **** 0.06
29598 H 9.810332403771838 69.89772289529526 80.4264389494297 H 0.0 **** 0.06
29599 H 10.497497958329163 68.46926636589114 79.61572755414261 H 0.0 **** 0.06
29600 H 10.625584169704155 70.07267031796192 78.85306629901112 H 0.0 **** 0.06
29601 C 79.32646122684872 50.375570406875624 180.18256914863423 C 0.0 **** -0.24
29602 H 79.57848282768876 49.3692568668029 179.84700265908754 H 0.0 **** 0.06
29603 H 78.77188621341435 50.891712426420696 179.39849793636915 H 0.0 **** 0.06
29604 H 80.24200689380783 50.92425939590066 180.40273317811813 H 0.0 **** 0.06
29605 H 78.7139718865966 50.314670148620195 181.08177915438364 H 0.0 **** 0.06
29606 C 177.1200491416655 121.72212906976506 133.16861360290198 C 0.0 **** -0.24
29607 H 176.78535341343218 122.3724075292252 132.36016856155535 H 0.0 **** 0.06
29608 H 178.20655067844461 121.6377095399595 133.1400401369589 H 0.0 **** 0.06
29609 H 176.6752478265583 120.73451708267771 133.0472421390842 H 0.0 **** 0.06
29610 H 176.81341801125043 122.14516514383456 134.1249506253832 H 0.0 **** 0.06
29611 C 96.13827411306261 91.57599818195274 97.11418796026538 C 0.0 **** -0.24
29612 H 96.6732109408432 92.0980651147143 96.32007309648995 H 0.0 **** 0.06
29613 H 95.27698374225872 92.1683186126536 97.42128902264938 H 0.0 **** 0.06
29614 H 96.8040850461723 91.43178109013138 97.96531716504197 H 0.0 **** 0.06
29615 H 95.8012415640905 90.60539674437135 96.74785118809365 H 0.0 **** 0.06
29616 C 100.95096816482939 22.343899225120694 146.72004060503667 C 0.0 **** -0.24
29617 H 100.77612220830144 21.28884016452149 146.5100407326991 H 0.0 **** 0.06
29618 H 100.02131489608206 22.807570170294284 147.05114293595847 H 0.0 **** 0.06
29619 H 101.30233903703765 22.841138619519427 145.81563461811217 H 0.0 **** 0.06
29620 H 101.70290721279156 22.43860844576112 147.5028231374226 H 0.0 **** 0.06
29621 C 89.03610822998883 9.011798880381235 80.68566137940252 C 0.0 **** -0.24
29622 H 88.52495924935204 9.615257588109444 81.4355780305668 H 0.0 **** 0.06
29623 H 89.71523983966927 8.316670863474968 81.18042294133153 H 0.0 **** 0.06
29624 H 89.60202702735876 9.662295783502401 80.02035443396392 H 0.0 **** 0.06
29625 H 88.3001306643946 8.451123020491309 80.10858659604114 H 0.0 **** 0.06
29626 C 14.462566103331085 126.69509997290311 66.07258626836733 C 0.0 **** -0.24
29627 H 14.215787803911155 127.27524608267481 65.18389024263212 H 0.0 **** 0.06
29628 H 15.456397436516795 126.26083421020041 65.95942606216471 H 0.0 **** 0.06
29629 H 13.729881168038219 125.89918093814629 66.20124213233419 H 0.0 **** 0.06
29630 H 14.44839074525919 127.34690459329107 66.94714473829322 H 0.0 **** 0.06
29631 C 171.83517894038192 186.12365528174365 10.941089004290191 C 0.0 **** -0.24
29632 H 172.8808691372956 186.37397996335022 10.763608757565983 H 0.0 **** 0.06
29633 H 171.55089605113932 186.44137206797785 11.944305315539616 H 0.0 **** 0.06
29634 H 171.6979191125918 185.04666130335465 10.847518818021719 H 0.0 **** 0.06
29635 H 171.21049364066602 186.6346724425328 10.207066208657643 H 0.0 **** 0.06
29636 C 34.24309228501329 111.38357671633202 34.2424343189702 C 0.0 **** -0.24
29637 H 34.93801322018146 112.20509789251645 34.070122043313916 H 0.0 **** 0.06
29638 H 34.75650788881961 110.43450921958049 34.085647826878244 H 0.0 **** 0.06
29639 H 33.40655881487987 111.46383710644557 33.54732157001047 H 0.0 **** 0.06
29640 H 33.87111024910212 111.4320979465048 35.265980968304405 H 0.0 **** 0.06
29641 C 121.89105401759286 102.51251342566354 184.23687815947832 C 0.0 **** -0.24
29642 H 120.96041842076625 102.85183670006296 184.6904900636335 H 0.0 **** 0.06
29643 H 122.6486830706881 103.29007426590863 184.338342720553 H 0.0 **** 0.06
29644 H 121.72459052682245 102.30392409394267 183.17995664697065 H 0.0 **** 0.06
29645 H 122.23049228964396 101.606118975919 184.7375451434985 H 0.0 **** 0.06
29646 C 169.6477658730314 53.35187920555455 140.75301060850197 C 0.0 **** -0.24
29647 H 169.4553892558189 54.40363151843667 140.96265786250615 H 0.0 **** 0.06
29648 H 168.93299108862143 52.99202862392946 140.01299692826348 H 0.0 **** 0.06
29649 H 169.543043560223 52.7737959176676 141.67116126758987 H 0.0 **** 0.06
29650 H 170.6605531061447 53.238283617063416 140.36556672978247 H 0.0 **** 0.06
29651 C 51.91484021426763 178.05115192021825 56.72105645475227 C 0.0 **** -0.24
29652 H 51.23815879690727 178.90184865963403 56.802542661472444 H 0.0 **** 0.06
29653 H 52.24894171389221 177.95009163821825 55.68894760985674 H 0.0 **** 0.06
29654 H 51.393712488018764 177.143344974442 57.02541993692296 H 0.0 **** 0.06
29655 H 52.77694366638971 178.21039760405884 57.36844283355265 H 0.0 **** 0.06
29656 C 130.17101534805317 81.86959680095441 182.56430286981922 C 0.0 **** -0.24
29657 H 129.16129879326513 82.05218438012105 182.9325174060935 H 0.0 **** 0.06
29658 H 130.38066633165147 80.80020570410181 182.592742893537 H 0.0 **** 0.06
29659 H 130.8878874720669 82.3978648527553 183.19206706366805 H 0.0 **** 0.06
29660 H 130.25301003278912 82.22863060393087 181.53806347410276 H 0.0 **** 0.06
29661 C 128.3503533678276 140.17675852937 97.45430305215785 C 0.0 **** -0.24
29662 H 129.43343679677582 140.1092366396908 97.34845987356084 H 0.0 **** 0.06
29663 H 127.90311363413872 140.39196695083203 96.48338871095268 H 0.0 **** 0.06
29664 H 128.10406177264775 140.97602334913688 98.15324573811529 H 0.0 **** 0.06
29665 H 127.96244286400784 139.23162074054184 97.83199028633453 H 0.0 **** 0.06
29666 C 97.08094345019276 27.189191218010265 1.0630469312833029 C 0.0 **** -0.24
29667 H 97.57418151150989 26.981305915983185 0.11328558862292226 H 0.0 **** 0.06
29668 H 96.00276664159213 27.223196816315692 0.9116598867988372 H 0.0 **** 0.06
29669 H 97.42543762261903 28.149814807728276 1.4479843285953962 H 0.0 **** 0.06
29670 H 97.32461165811219 26.403084762226385 1.777468458839813 H 0.0 **** 0.06
29671 C 49.74683937240536 42.68570907235684 84.65195273329084 C 0.0 **** -0.24
29672 H 50.5116248431471 43.42370769300494 84.89513561594583 H 0.0 **** 0.06
29673 H 50.14432870345752 41.68384321158723 84.81711244598307 H 0.0 **** 0.06
29674 H 49.45623724064333 42.79447450567058 83.60680098588989 H 0.0 **** 0.06
29675 H 48.87678977536626 42.84105029238694 85.28931720526941 H 0.0 **** 0.06
29676 C 37.88050283578008 17.097201377742408 106.87751479812124 C 0.0 **** -0.24
29677 H 37.78615939505113 18.16322676301735 106.66801802201576 H 0.0 **** 0.06
29678 H 38.47923184237055 16.95597697299553 107.77775584515868 H 0.0 **** 0.06
29679 H 38.36617480030384 16.603472902893827 106.03605796053304 H 0.0 **** 0.06
29680 H 36.89043357915895 16.668330875377706 107.02861614746828 H 0.0 **** 0.06
29681 C 45.487151529300604 3.9798565750303823 40.17846539029779 C 0.0 **** -0.24
29682 H 45.72669826989744 3.8561007925039377 39.12184267128282 H 0.0 **** 0.06
29683 H 45.35952032920824 3.000433781060984 40.638904244097176 H 0.0 **** 0.06
29684 H 44.563973116789214 4.551773332405084 40.27661600227502 H 0.0 **** 0.06
29685 H 46.29903340443036 4.5127905039322584 40.674819056171415 H 0.0 **** 0.06
29686 C 35.82384841648337 87.34433499387859 40.939273113072886 C 0.0 **** -0.24
29687 H 35.6552138449953 86.66594222268722 40.10264157975962 H 0.0 **** 0.06
29688 H 36.38493304982114 88.21271046524626 40.595431963654704 H 0.0 **** 0.06
29689 H 36.39112776612757 86.82900530340024 41.7153047903887 H 0.0 **** 0.06
29690 H 34.865347808529464 87.66670250169207 41.34449703850055 H 0.0 **** 0.06
29691 C 78.97115619156742 167.83016455695557 190.39204812901022 C 0.0 **** -0.24
29692 H 78.85461071573704 167.35536280957768 189.41771135947033 H 0.0 **** 0.06
29693 H 79.9701504755055 168.25930992673113 190.46960685562112 H 0.0 **** 0.06
29694 H 78.8323285217497 167.08646290864758 191.17713820813393 H 0.0 **** 0.06
29695 H 78.22585160462059 168.6181156033229 190.50330421636335 H 0.0 **** 0.06
29696 C 67.47332150286817 1.826729230731388 80.46256935439524 C 0.0 **** -0.24
29697 H 68.12957566715596 2.559656518306781 79.99361334561416 H 0.0 **** 0.06
29698 H 66.64328625688825 1.6015025144141646 79.79217311264557 H 0.0 **** 0.06
29699 H 67.0870464497198 2.2309257332395305 81.39847504497882 H 0.0 **** 0.06
29700 H 68.03531359279526 0.9143958021901994 80.66458001667394 H 0.0 **** 0.06
29701 C 198.91851974951106 48.96430054888526 125.98621905378386 C 0.0 **** -0.24
29702 H 198.1689246199643 49.30339220306371 125.27059436621826 H 0.0 **** 0.06
29703 H 199.90810143044217 49.028732597063424 125.53262417574166 H 0.0 **** 0.06
29704 H 198.7124877619222 47.93178959460079 126.26633975596005 H 0.0 **** 0.06
29705 H 198.88349719361486 49.59558467975444 126.87405938118579 H 0.0 **** 0.06
29706 C 142.50842870546848 116.14691709521537 127.03158507252974 C 0.0 **** -0.24
29707 H 142.35798501682913 115.66320629752363 126.06662484763334 H 0.0 **** 0.06
29708 H 141.54272690440035 116.44378989661305 127.44327220966073 H 0.0 **** 0.06
29709 H 143.13473986454542 117.02958770286239 126.90233488012166 H 0.0 **** 0.06
29710 H 142.99664983802978 115.45231947701313 127.71504242550034 H 0.0 **** 0.06
29711 C 25.13252274820347 46.52281994868669 99.87654505785284 C 0.0 **** -0.24
29712 H 26.031723458564784 47.07339932738715 100.14957815558932 H 0.0 **** 0.06
29713 H 24.85516199931925 45.85236573360842 100.69080415178686 H 0.0 **** 0.06
29714 H 25.32176022555346 45.94001657029163 98.97552781920058 H 0.0 **** 0.06
29715 H 24.31923824112296 47.22446361509975 99.6905123632009 H 0.0 **** 0.06
29716 C 6.19857681800503 94.83689285055371 41.3268032489008 C 0.0 **** -0.24
29717 H 5.198538228840782 95.23945083603144 41.158539701338384 H 0.0 **** 0.06
29718 H 6.320516391673877 94.60018946294531 42.38418867890334 H 0.0 **** 0.06
29719 H 6.942069813884771 95.57629622457827 41.03092578272623 H 0.0 **** 0.06
29720 H 6.329482493108294 93.93168829329466 40.73411101014301 H 0.0 **** 0.06
29721 C 107.49762658060683 151.35363539647247 116.99110780402759 C 0.0 **** -0.24
29722 H 108.17525241677305 150.50083863947384 116.94943525508472 H 0.0 **** 0.06
29723 H 106.8959199787372 151.29420052394812 117.89879077353424 H 0.0 **** 0.06
29724 H 106.84321946960392 151.34052961622524 116.11969386850649 H 0.0 **** 0.06
29725 H 108.07605471213446 152.27745137485786 116.99843012245424 H 0.0 **** 0.06
29726 C 159.179164793876 76.16041241221838 115.81399284948458 C 0.0 **** -0.24
29727 H 159.79061285907585 75.7543183258093 116.61917016972984 H 0.0 **** 0.06
29728 H 158.2250185724646 75.63398839965113 115.78145917879516 H 0.0 **** 0.06
29729 H 159.69809562982385 76.03107139678517 114.86408107624709 H 0.0 **** 0.06
29730 H 159.00383262713638 77.22176471760169 115.99029543487728 H 0.0 **** 0.06
29731 C 28.013772667305744 179.60100419513753 163.0720015310542 C 0.0 **** -0.24
29732 H 28.11403646082917 179.52155624830687 161.98992673725294 H 0.0 **** 0.06
29733 H 28.6295873943112 178.83979606725296 163.55127608302013 H 0.0 **** 0.06
29734 H 26.97043845726084 179.4545105536796 163.35130247918437 H 0.0 **** 0.06
29735 H 28.339687919116514 180.58960372342196 163.3944513583788 H 0.0 **** 0.06
29736 C 58.7863428866541 122.46108572781444 77.53980895445258 C 0.0 **** -0.24
29737 H 58.708267942581074 122.47037425950901 76.45167074882562 H 0.0 **** 0.06
29738 H 59.42031999385392 123.28616244065589 77.86451363260211 H 0.0 **** 0.06
29739 H 59.22360831634177 121.51701313610275 77.8636492724813 H 0.0 **** 0.06
29740 H 57.79360640110201 122.57095804109548 77.97518466205645 H 0.0 **** 0.06
29741 C 173.62692710681074 59.74855663146053 30.510165705633057 C 0.0 **** -0.24
29742 H 173.18711891300853 59.107182578048594 29.7460153461399 H 0.0 **** 0.06
29743 H 173.78208569853098 59.17164842296606 31.422107272878648 H 0.0 **** 0.06
29744 H 172.95387024952356 60.580220518304486 30.716178586543307 H 0.0 **** 0.06
29745 H 174.58275574275444 60.1330215939233 30.154677327463446 H 0.0 **** 0.06
29746 C 53.44594352430374 28.217829738093073 90.7911254601367 C 0.0 **** -0.24
29747 H 54.297510670144845 28.897645563375264 90.80293681815255 H 0.0 **** 0.06
29748 H 53.70379388511799 27.32310372716178 90.22526839341293 H 0.0 **** 0.06
29749 H 52.59329073984934 28.710431680924884 90.32470374280126 H 0.0 **** 0.06
29750 H 53.18966475740268 27.9405791953846 91.81373047484897 H 0.0 **** 0.06
29751 C 27.2034774996053 175.43274946553595 19.880071465594668 C 0.0 **** -0.24
29752 H 28.251476234774742 175.15764876259703 20.00344877497892 H 0.0 **** 0.06
29753 H 26.925874692134926 176.15746978772162 20.64661360823098 H 0.0 **** 0.06
29754 H 26.581248389628854 174.54365458095214 19.978218731061602 H 0.0 **** 0.06
29755 H 27.057159377766254 175.87275082834157 18.893523192931426 H 0.0 **** 0.06
29756 C 136.36714137589047 53.769284774432606 27.11456105980551 C 0.0 **** -0.24
29757 H 136.03470878574103 52.92815581427742 27.723515363151137 H 0.0 **** 0.06
29758 H 137.28668780573656 54.17860800888896 27.53297059250957 H 0.0 **** 0.06
29759 H 135.59638014189136 54.53943326398739 27.10755476776879 H 0.0 **** 0.06
29760 H 136.55106976904767 53.42863994017246 26.09499195805313 H 0.0 **** 0.06
29761 C 153.04462879993582 93.69776656596875 189.31242004516764 C 0.0 **** -0.24
29762 H 152.61961445558262 93.43812591228436 190.28132158437626 H 0.0 **** 0.06
29763 H 152.68387790111012 92.99839142794525 188.55879953829825 H 0.0 **** 0.06
29764 H 154.13176588631484 93.64648675963318 189.36629957773965 H 0.0 **** 0.06
29765 H 152.74196406660604 94.70984476508417 189.0436479086467 H 0.0 **** 0.06
29766 C 198.12734207896074 79.17377921525556 2.3608222145788105 C 0.0 **** -0.24
29767 H 197.29868203515684 79.88099560071839 2.3240091718067504 H 0.0 **** 0.06
29768 H 198.32159458527315 78.89621841634377 3.395909460889321 H 0.0 **** 0.06
29769 H 199.01817608310836 79.63688084464829 1.934181402191335 H 0.0 **** 0.06
29770 H 197.87134780108926 78.28344847055408 1.785735442582073 H 0.0 **** 0.06
29771 C 95.27480961917166 7.775669421800131 113.84730108584006 C 0.0 **** -0.24
29772 H 95.16867903897798 8.169075659587136 114.8580802436203 H 0.0 **** 0.06
29773 H 96.24676500919406 7.292046037100633 113.746673867093 H 0.0 **** 0.06
29774 H 95.19825475687458 8.592032961569217 113.12983290952076 H 0.0 **** 0.06
29775 H 94.4855153518211 7.048266173426384 113.6552652166275 H 0.0 **** 0.06
29776 C 95.27402905638499 161.10073695889218 46.33728222956313 C 0.0 **** -0.24
29777 H 96.03093403549619 160.43641631262346 45.920105267875186 H 0.0 **** 0.06
29778 H 94.28586884348641 160.77642228329051 46.010840704349846 H 0.0 **** 0.06
29779 H 95.45564933003931 162.11863967663453 45.99341626787469 H 0.0 **** 0.06
29780 H 95.32618567071543 161.07067819693552 47.42577423597362 H 0.0 **** 0.06
29781 C 199.01367567022461 92.14624709730143 101.24425417341862 C 0.0 **** -0.24
29782 H 199.206321193303 91.34708773031133 100.52823552948743 H 0.0 **** 0.06
29783 H 199.95446162173852 92.62610281193096 101.5140077072275 H 0.0 **** 0.06
29784 H 198.54778523730295 91.73009143141624 102.13726662581476 H 0.0 **** 0.06
29785 H 198.34577781990063 92.88143833992604 100.7950983144338 H 0.0 **** 0.06
29786 C 76.28663318364298 36.94011173346911 123.38545557899383 C 0.0 **** -0.24
29787 H 75.84692178899927 35.95157002033221 123.25466244557146 H 0.0 **** 0.06
29788 H 77.36505820757907 36.8440673386757 123.51291393406336 H 0.0 **** 0.06
29789 H 75.85696567791797 37.41573555036274 124.26787414847365 H 0.0 **** 0.06
29790 H 76.07809832801513 37.54991867467305 122.50621306544969 H 0.0 **** 0.06
29791 C 18.19131829901346 54.520804989112435 92.27489489362006 C 0.0 **** -0.24
29792 H 17.788675918140143 55.31813607331884 91.64951344509984 H 0.0 **** 0.06
29793 H 19.270780589432775 54.637911372964595 92.36261552583483 H 0.0 **** 0.06
29794 H 17.966056148035648 53.554877083740735 91.82256986356083 H 0.0 **** 0.06
29795 H 17.738405491879234 54.57189802290628 93.26480355799265 H 0.0 **** 0.06
29796 C 51.01169827954601 162.12707438212135 38.55700124508037 C 0.0 **** -0.24
29797 H 50.38100209335266 161.24337451830934 38.462399215308054 H 0.0 **** 0.06
29798 H 50.430492751882525 163.0165594416983 38.31424593275551 H 0.0 **** 0.06
29799 H 51.85569123149247 162.04521459537486 37.872057045704835 H 0.0 **** 0.06
29800 H 51.37992604683683 162.20147598940108 39.5803513320064 H 0.0 **** 0.06
29801 C 102.47155157840044 168.45865020622716 184.8868972622617 C 0.0 **** -0.24
29802 H 103.22326568346386 168.51588298040352 184.10002117059435 H 0.0 **** 0.06
29803 H 101.47710069486266 168.5001777484486 184.44297544750168 H 0.0 **** 0.06
29804 H 102.59882463119123 169.2965970587384 185.572253610424 H 0.0 **** 0.06
29805 H 102.58701530408436 167.5219430373181 185.43233882052675 H 0.0 **** 0.06
29806 C 18.45459136399029 178.65133826769434 187.07473592194094 C 0.0 **** -0.24
29807 H 19.19665394258459 178.13214024536887 187.68132658044598 H 0.0 **** 0.06
29808 H 17.524445294490704 178.73979375696354 187.6367853995664 H 0.0 **** 0.06
29809 H 18.27431564113317 178.08799397936463 186.15972852464336 H 0.0 **** 0.06
29810 H 18.822963639736997 179.64544963432434 186.82310301144628 H 0.0 **** 0.06
29811 C 157.19518729059075 65.16963629813836 186.6436848103258 C 0.0 **** -0.24
29812 H 156.3172894174277 64.66805377079422 187.0499432974043 H 0.0 **** 0.06
29813 H 157.59428433984397 64.58620727111631 185.81390303161737 H 0.0 **** 0.06
29814 H 157.95362589046783 65.26142118063802 187.42143291702973 H 0.0 **** 0.06
29815 H 156.91538783414094 66.16159291135773 186.29006070623666 H 0.0 **** 0.06
29816 C 16.417847729299297 78.87816914572593 158.788110468951 C 0.0 **** -0.24
29817 H 16.506865182115575 79.77124732234637 158.16945875036512 H 0.0 **** 0.06
29818 H 17.33603700378626 78.29469485943483 158.71571634009476 H 0.0 **** 0.06
29819 H 15.577278577582263 78.27761488276032 158.4391036197983 H 0.0 **** 0.06
29820 H 16.25211235252965 79.16878903750461 159.8249887274093 H 0.0 **** 0.06
29821 C 113.96261190091013 98.621276188688 199.10167981027251 C 0.0 **** -0.24
29822 H 114.33590612180944 97.59653166021931 199.11049962692158 H 0.0 **** 0.06
29823 H 113.07463412855122 98.68978757722499 199.73061332178085 H 0.0 **** 0.06
29824 H 113.70792103137717 98.9056222045673 198.08103561559193 H 0.0 **** 0.06
29825 H 114.73189085639001 99.29071657496186 199.48450366724413 H 0.0 **** 0.06
29826 C 131.1142335606812 184.61311707789415 82.56414094222748 C 0.0 **** -0.24
29827 H 131.41169028108965 184.0788930212093 81.66236335493011 H 0.0 **** 0.06
29828 H 131.2987850803243 183.98518302943663 83.43575510518008 H 0.0 **** 0.06
29829 H 130.05350456908877 184.8571944882049 82.50948842210738 H 0.0 **** 0.06
29830 H 131.6946798019937 185.53236115532354 82.64977501508224 H 0.0 **** 0.06
29831 C 103.64947391188508 42.89005754815025 86.98286462437895 C 0.0 **** -0.24
29832 H 104.32759611194336 42.3696166301886 86.30627965328699 H 0.0 **** 0.06
29833 H 102.6278667892837 42.80561244074761 86.60855505447034 H 0.0 **** 0.06
29834 H 103.92935459908409 43.94124936811784 87.0394526719173 H 0.0 **** 0.06
29835 H 103.71141697061006 42.44292051494574 87.97481533152268 H 0.0 **** 0.06
29836 C 8.944752304291853 36.51627893480503 29.27900412407358 C 0.0 **** -0.24
29837 H 8.063739684196719 37.11252994785582 29.040991140538424 H 0.0 **** 0.06
29838 H 9.128281198901107 36.55215452174832 30.35300495131139 H 0.0 **** 0.06
29839 H 9.808384243457112 36.917014725380255 28.748726487143344 H 0.0 **** 0.06
29840 H 8.777037889511263 35.483636429357944 28.972587709475448 H 0.0 **** 0.06
29841 C 105.81890894844724 116.39759837672278 29.177719662316804 C 0.0 **** -0.24
29842 H 105.71304601709127 115.60495233681053 29.918139117190492 H 0.0 **** 0.06
29843 H 106.79244155230833 116.31630213916176 28.694516942881137 H 0.0 **** 0.06
29844 H 105.7362178360527 117.36723430141095 29.668812360300763 H 0.0 **** 0.06
29845 H 105.03228730864026 116.30299890529639 28.428359906783044 H 0.0 **** 0.06
29846 C 61.64446709898226 119.11424798755246 170.10882593341148 C 0.0 **** -0.24
29847 H 62.32896758137289 119.87073876816751 170.49163849177754 H 0.0 **** 0.06
29848 H 61.17959391678923 119.47722995149314 169.19147064302547 H 0.0 **** 0.06
29849 H 60.87296606419051 118.9141038919216 170.85219876834364 H 0.0 **** 0.06
29850 H 62.195175611476316 118.19795885799451 169.9006312966748 H 0.0 **** 0.06
29851 C 157.00555128403684 102.54608231634114 69.67834890260944 C 0.0 **** -0.24
29852 H 157.86177515182652 103.1358302195427 69.35274061621908 H 0.0 **** 0.06
29853 H 156.18623472130912 102.67474039743024 68.97049216028505 H 0.0 **** 0.06
29854 H 156.68814439849064 102.8802793500814 70.66591656399818 H 0.0 **** 0.06
29855 H 157.2855827804725 101.49357488551007 69.72291517878756 H 0.0 **** 0.06
29856 C 142.5280317935864 188.06768688770507 32.79562030323359 C 0.0 **** -0.24
29857 H 142.963495879973 188.31371919096017 31.82761524232785 H 0.0 **** 0.06
29858 H 142.3786213214697 188.98246906238185 33.369881379618505 H 0.0 **** 0.06
29859 H 143.2011974295041 187.40380292898786 33.33790786112809 H 0.0 **** 0.06
29860 H 141.56960463161286 187.57118693370722 32.64750943238141 H 0.0 **** 0.06
29861 C 169.44430160543095 47.424226033109704 65.3389577030805 C 0.0 **** -0.24
29862 H 168.8090106344029 47.474363408498874 66.22408274478482 H 0.0 **** 0.06
29863 H 169.4889023551299 46.395227111980105 64.98232809993448 H 0.0 **** 0.06
29864 H 170.4481566354043 47.76581401300429 65.59277738098655 H 0.0 **** 0.06
29865 H 169.02934480685644 48.06171484837961 64.55829865710882 H 0.0 **** 0.06
29866 C 155.4950876992758 112.82945469302155 32.65566596477046 C 0.0 **** -0.24
29867 H 154.8931371350131 112.27741784317104 31.933066115950908 H 0.0 **** 0.06
29868 H 155.8781564381697 113.73741376865453 32.18991888802135 H 0.0 **** 0.06
29869 H 156.32867609296963 112.20932645810032 32.98382297469348 H 0.0 **** 0.06
29870 H 154.87783743112607 113.09397661894587 33.51400385343106 H 0.0 **** 0.06
29871 C 95.17387697225493 33.61139055286611 7.074862566440203 C 0.0 **** -0.24
29872 H 95.10769492276486 33.3710188909796 8.135309195287505 H 0.0 **** 0.06
29873 H 94.16881523918988 33.720255050502146 6.664452811827772 H 0.0 **** 0.06
29874 H 95.69511132059122 32.80939302611159 6.552286829646334 H 0.0 **** 0.06
29875 H 95.72217649275663 34.544723898149414 6.947617994401469 H 0.0 **** 0.06
29876 C 192.19122325412872 131.02896535155227 99.16952200612198 C 0.0 **** -0.24
29877 H 191.74186920388001 130.44945783123816 98.3638020619243 H 0.0 **** 0.06
29878 H 192.48850848573076 132.00680440295005 98.7909365361829 H 0.0 **** 0.06
29879 H 193.06764685028367 130.50432318939576 99.55020161953684 H 0.0 **** 0.06
29880 H 191.4661601113606 131.15584114195963 99.97423355857356 H 0.0 **** 0.06
29881 C 188.51433761916365 128.84970853355918 78.85062184670176 C 0.0 **** -0.24
29882 H 188.33485372878866 127.94479028602575 79.43071164126985 H 0.0 **** 0.06
29883 H 188.40567855869753 128.62870535900362 77.78894841234916 H 0.0 **** 0.06
29884 H 189.524845650292 129.21165252798812 79.04502808536404 H 0.0 **** 0.06
29885 H 187.79352006493968 129.61506656232382 79.13863543665246 H 0.0 **** 0.06
29886 C 74.03638178964718 10.648903798062918 29.545434163741078 C 0.0 **** -0.24
29887 H 74.92788855269714 10.037095141004045 29.4037670755946 H 0.0 **** 0.06
29888 H 73.26349031903072 10.330181707507535 28.845973880475583 H 0.0 **** 0.06
29889 H 74.28121498795554 11.695087422047976 29.3658146155866 H 0.0 **** 0.06
29890 H 73.67365639595374 10.530492699093088 30.5671135710038 H 0.0 **** 0.06
29891 C 63.12156621897232 6.219441217453692 137.13936759801254 C 0.0 **** -0.24
29892 H 62.03159961587136 6.233084331284886 137.17273492294825 H 0.0 **** 0.06
29893 H 63.496557150139395 7.242345384589157 137.10767303118038 H 0.0 **** 0.06
29894 H 63.45056486471597 5.683045377714933 136.2483490152323 H 0.0 **** 0.06
29895 H 63.50596706476685 5.718131005556188 138.0276303649902 H 0.0 **** 0.06
29896 C 175.29724168649136 25.696657641129065 76.76206649786444 C 0.0 **** -0.24
29897 H 175.53584674496324 25.227637554667666 75.8075600994691 H 0.0 **** 0.06
29898 H 176.12920498562625 25.556566103655257 77.4535924578312 H 0.0 **** 0.06
29899 H 174.39898304484507 25.24093593089168 77.17676371724242 H 0.0 **** 0.06
29900 H 175.12670370733383 26.762842227155886 76.61016216635855 H 0.0 **** 0.06
29901 C 113.10493533417645 29.400295418015162 154.79802343494399 C 0.0 **** -0.24
29902 H 112.49291555424918 29.711392512450686 155.6438402236393 H 0.0 **** 0.06
29903 H 113.25306727044187 28.32100501002361 154.83470896598604 H 0.0 **** 0.06
29904 H 114.07131248707688 29.90254080182791 154.84375589405428 H 0.0 **** 0.06
29905 H 112.60066307303109 29.665909331125818 153.8681425561336 H 0.0 **** 0.06
29906 C 159.9968849079031 93.56288100792474 81.13551667597534 C 0.0 **** -0.24
29907 H 160.63875948944332 93.33251945030085 81.98599728294153 H 0.0 **** 0.06
29908 H 160.61023977420572 93.88832154749448 80.29567923261789 H 0.0 **** 0.06
29909 H 159.3038883746225 94.35884122300473 81.40925713113484 H 0.0 **** 0.06
29910 H 159.43376777371304 92.67298651598156 80.85310990713174 H 0.0 **** 0.06
29911 C 36.89541061692012 137.34145820636104 52.42471506229231 C 0.0 **** -0.24
29912 H 37.79305399977146 137.06355871270534 51.873345959829294 H 0.0 **** 0.06
29913 H 36.04764753916609 136.76852226914036 52.05072464717422 H 0.0 **** 0.06
29914 H 36.70277046917572 138.40541095014487 52.29213684341309 H 0.0 **** 0.06
29915 H 37.03977721051535 137.12784037728937 53.484432676461836 H 0.0 **** 0.06
29916 C 168.04380211036732 8.708593084486616 32.72844512266596 C 0.0 **** -0.24
29917 H 168.53474459735398 9.564232335042547 33.19073140050848 H 0.0 **** 0.06
29918 H 168.56936692491777 7.794366093774087 33.00692375637409 H 0.0 **** 0.06
29919 H 168.06028976017478 8.82200667396907 31.64480672244939 H 0.0 **** 0.06
29920 H 167.0106561933409 8.653520256268116 33.073026321974766 H 0.0 **** 0.06
29921 C 142.12377762935398 44.1250735659429 54.108464278064545 C 0.0 **** -0.24
29922 H 141.73536500667308 44.832479958141334 53.37540730536335 H 0.0 **** 0.06
29923 H 141.9726157856445 43.10719095378391 53.74651841619365 H 0.0 **** 0.06
29924 H 141.59809048397295 44.25655911539738 55.05417631443471 H 0.0 **** 0.06
29925 H 143.18889401836242 44.303712451681065 54.25639301860991 H 0.0 **** 0.06
29926 C 56.17092980172001 124.95343643857342 62.108455763655314 C 0.0 **** -0.24
29927 H 56.95764435157403 125.34394526827194 61.46242343640964 H 0.0 **** 0.06
29928 H 55.385162183626576 125.70049238556493 62.21552266162381 H 0.0 **** 0.06
29929 H 56.58778661707328 124.72083656337949 63.08802217855438 H 0.0 **** 0.06
29930 H 55.75501729471827 124.04816149418386 61.66670273969791 H 0.0 **** 0.06
29931 C 180.85878202002544 60.26300910793361 55.117013092469136 C 0.0 **** -0.24
29932 H 181.32933270499726 60.27330584346191 54.13352098415777 H 0.0 **** 0.06
29933 H 180.33647226977138 59.317364409865945 55.25954833815334 H 0.0 **** 0.06
29934 H 180.1471175515516 61.08579631239286 55.187876275455835 H 0.0 **** 0.06
29935 H 181.62308929794725 60.376302713968585 55.8854690857562 H 0.0 **** 0.06
29936 C 132.70518540630803 42.634489802593976 19.627848828327217 C 0.0 **** -0.24
29937 H 133.3236217748696 41.90990992923946 20.158098919539498 H 0.0 **** 0.06
29938 H 132.64450050893578 43.55330554077909 20.21005638427856 H 0.0 **** 0.06
29939 H 131.7045463736426 42.2244478161187 19.4878674097708 H 0.0 **** 0.06
29940 H 133.14976538799345 42.84747964386315 18.655824834687493 H 0.0 **** 0.06
29941 C 133.83831122028514 183.54690536945134 0.521895928073377 C 0.0 **** -0.24
29942 H 133.18875542841482 183.85560284758583 -0.2978801678090335 H 0.0 **** 0.06
29943 H 134.87508424112292 183.7628160190136 0.26359575411566993 H 0.0 **** 0.06
29944 H 133.72154203772112 182.47699312937795 0.694071525907745 H 0.0 **** 0.06
29945 H 133.56702094803802 184.0933599627192 1.4251570463484313 H 0.0 **** 0.06
29946 C 88.43719611316462 134.2591155066942 121.13828048541703 C 0.0 **** -0.24
29947 H 88.18860747113621 133.20134109616316 121.04730420086563 H 0.0 **** 0.06
29948 H 87.83798806055646 134.83566947930555 120.43310609394777 H 0.0 **** 0.06
29949 H 89.49521222619902 134.40301984622073 120.91964580437417 H 0.0 **** 0.06
29950 H 88.22693198785939 134.59502269995502 122.15317999524723 H 0.0 **** 0.06
29951 C 20.569959238487044 38.23738175601932 35.56348822969352 C 0.0 **** -0.24
29952 H 20.869010520670685 38.5806731081947 36.55370490000192 H 0.0 **** 0.06
29953 H 21.360254043123817 37.615511142899976 35.140675284112405 H 0.0 **** 0.06
29954 H 20.399698346758598 39.09817633097312 34.917430496607466 H 0.0 **** 0.06
29955 H 19.65300565941861 37.654928792852274 35.64277457031375 H 0.0 **** 0.06
29956 C 157.4898534877522 180.61583138819321 144.64311840887476 C 0.0 **** -0.24
29957 H 157.50322919557448 180.30786281434004 143.59793368076998 H 0.0 **** 0.06
29958 H 156.96441003804009 179.86682691431076 145.23645489365464 H 0.0 **** 0.06
29959 H 156.97892452186875 181.5744990695781 144.7329991760263 H 0.0 **** 0.06
29960 H 158.51270834402715 180.7137714827269 145.00600592649764 H 0.0 **** 0.06
29961 C 124.53998666444127 195.85845656984182 193.3331398754084 C 0.0 **** -0.24
29962 H 125.45189267008064 195.2627266901256 193.33455207752922 H 0.0 **** 0.06
29963 H 124.587939078207 196.59832868189596 194.13279325589622 H 0.0 **** 0.06
29964 H 123.6807029573246 195.20705179525876 193.49185662950532 H 0.0 **** 0.06
29965 H 124.43819890996068 196.36567692496112 192.37408334316652 H 0.0 **** 0.06
29966 C 128.5210009584519 101.40202721699984 106.6585677291979 C 0.0 **** -0.24
29967 H 129.31306493865966 100.65346895992681 106.6576399425638 H 0.0 **** 0.06
29968 H 127.86861394293575 101.24237339506405 105.79899483426647 H 0.0 **** 0.06
29969 H 128.96163004171385 102.3979166625794 106.60007043914734 H 0.0 **** 0.06
29970 H 127.9395791036313 101.31509882285778 107.57712518001924 H 0.0 **** 0.06
29971 C 8.350661892540487 150.05009450796348 169.01471324628992 C 0.0 **** -0.24
29972 H 8.220991577548148 149.62275727384966 168.02041792846077 H 0.0 **** 0.06
29973 H 9.075354723537949 150.86298554799396 168.96945688441994 H 0.0 **** 0.06
29974 H 8.711288036781603 149.2785917230294 169.6954143043856 H 0.0 **** 0.06
29975 H 7.395300778883936 150.43324433497003 169.37327709635963 H 0.0 **** 0.06
29976 C 148.5006442453609 48.4253442514472 51.241042439395954 C 0.0 **** -0.24
29977 H 147.63065712431884 49.05539323757226 51.05782848904485 H 0.0 **** 0.06
29978 H 149.17480264564276 48.47978000566387 50.385494129410006 H 0.0 **** 0.06
29979 H 148.17855857106278 47.39428492042278 51.38479272060668 H 0.0 **** 0.06
29980 H 149.01786864753294 48.77251203839572 52.135639629872614 H 0.0 **** 0.06
29981 C 101.0420266584872 103.0726009723193 149.7919277904615 C 0.0 **** -0.24
29982 H 101.93575893853458 102.51580724046954 149.51192419379714 H 0.0 **** 0.06
29983 H 101.27578223465602 103.74247974102079 150.61999630770657 H 0.0 **** 0.06
29984 H 100.26061120595463 102.37683807731347 150.09705163450946 H 0.0 **** 0.06
29985 H 100.69604182948387 103.65764863409436 148.93935261459882 H 0.0 **** 0.06
29986 C 79.05061541876867 118.66776466857306 52.38662088922939 C 0.0 **** -0.24
29987 H 79.63249816937221 119.42534958958709 51.86295667903852 H 0.0 **** 0.06
29988 H 78.76407704442465 119.04467201366202 53.36902168367433 H 0.0 **** 0.06
29989 H 79.6503972626426 117.76523528497285 52.503941530874584 H 0.0 **** 0.06
29990 H 78.15410576338449 118.43560174009053 51.81077844635226 H 0.0 **** 0.06
29991 C 67.13862323540638 28.670827963616603 69.7061442633542 C 0.0 **** -0.24
29992 H 66.79170304922475 29.226417093782686 70.57775243153891 H 0.0 **** 0.06
29993 H 66.91397827240603 27.612557649278074 69.83681656799966 H 0.0 **** 0.06
29994 H 68.21540519029008 28.803492852093996 69.59688150348498 H 0.0 **** 0.06
29995 H 66.63420556693953 29.043143141409132 68.81456762419988 H 0.0 **** 0.06
29996 C 13.945023499855253 68.10551063856815 61.83659521098639 C 0.0 **** -0.24
29997 H 13.609140495428498 67.34834747606473 61.12829991353381 H 0.0 **** 0.06
29998 H 14.993822217781457 67.93407923579463 62.080677623183064 H 0.0 **** 0.06
29999 H 13.345970175104839 68.04380967310044 62.745117520520566 H 0.0 **** 0.06
30000 H 13.83108536732908 69.09411509091643 61.39265264034073 H 0.0 **** 0.06
30001 C 115.18782303717828 30.366206720729636 43.65785018843985 C 0.0 **** -0.24
30002 H 114.22063442000885 30.297658225962806 43.15836045048928 H 0.0 **** 0.06
30003 H 115.44886037668189 31.414770494758812 43.80015688771897 H 0.0 **** 0.06
30004 H 115.94762850895265 29.882355650861868 43.04478375523462 H 0.0 **** 0.06
30005 H 115.13114308547782 29.87059957949876 44.6268608286731 H 0.0 **** 0.06
30006 C 184.58422230796572 136.04625007202833 131.9412962948853 C 0.0 **** -0.24
30007 H 184.8891132092403 135.13125327741585 131.43384277236214 H 0.0 **** 0.06
30008 H 184.51356430958174 136.85698937402407 131.21683726028172 H 0.0 **** 0.06
30009 H 185.32148976761897 136.30121823989543 132.70289830355875 H 0.0 **** 0.06
30010 H 183.61285629068408 135.89317990173151 132.41225094284707 H 0.0 **** 0.06
30011 C 151.43265752478158 45.47598945780473 66.84610582986703 C 0.0 **** -0.24
30012 H 151.63305402317354 45.955937336797774 65.88799572791493 H 0.0 **** 0.06
30013 H 151.64375527420992 46.177744982056964 67.65391994139982 H 0.0 **** 0.06
30014 H 152.06880276741566 44.59779947633342 66.9517715603672 H 0.0 **** 0.06
30015 H 150.38684643007474 45.175170511334045 66.88955412902897 H 0.0 **** 0.06
30016 C 112.35095158001826 44.64585497353562 194.62429212384902 C 0.0 **** -0.24
30017 H 111.60679312982512 43.85081092222549 194.56372917492354 H 0.0 **** 0.06
30018 H 111.86734176665988 45.608041141304 194.45175216191848 H 0.0 **** 0.06
30019 H 113.1182718492667 44.483330615244256 193.86823121886968 H 0.0 **** 0.06
30020 H 112.80771711350906 44.64068619929324 195.61382494684312 H 0.0 **** 0.06
30021 C 76.749220416257 147.77969475036525 51.82824139204041 C 0.0 **** -0.24
30022 H 75.99812628424962 148.47357527930671 51.45034841045623 H 0.0 **** 0.06
30023 H 77.64316300780354 147.83806712681758 51.20720838677818 H 0.0 **** 0.06
30024 H 76.35292125792603 146.764748602687 51.798796947480696 H 0.0 **** 0.06
30025 H 77.00113353344898 148.04230924458426 52.85499017316073 H 0.0 **** 0.06
30026 C 185.94324870097668 23.413381315023855 112.39737645186923 C 0.0 **** -0.24
30027 H 185.22377778071268 24.184595282253554 112.12051310156568 H 0.0 **** 0.06
30028 H 186.92179741852607 23.867760622613673 112.54861304916707 H 0.0 **** 0.06
30029 H 186.00498992011234 22.672461072336716 111.59988732186818 H 0.0 **** 0.06
30030 H 185.61937322565151 22.929866693229997 113.3193449884352 H 0.0 **** 0.06
30031 C 44.149347992266826 112.03469221149533 136.85727375348364 C 0.0 **** -0.24
30032 H 44.21523476062043 110.94720493551557 136.83755004693816 H 0.0 **** 0.06
30033 H 43.96746938874372 112.40517003951823 135.84718064425002 H 0.0 **** 0.06
30034 H 45.084966084045845 112.44808785980723 137.23326244578263 H 0.0 **** 0.06
30035 H 43.33020807910333 112.33757138644211 137.5088162859447 H 0.0 **** 0.06
30036 C 33.49986157693769 138.90493186060272 184.83210951095924 C 0.0 **** -0.24
30037 H 32.48926585381366 139.2538102435693 185.04188514673532 H 0.0 **** 0.06
30038 H 33.60106896578486 138.70389746652418 183.76529231325287 H 0.0 **** 0.06
30039 H 33.691964733540374 137.99089473349537 185.39503420812096 H 0.0 **** 0.06
30040 H 34.21675018058738 139.6707843700511 185.12840049834773 H 0.0 **** 0.06
30041 C 49.89771050222099 73.0048116730082 12.693392226545512 C 0.0 **** -0.24
30042 H 50.13102587913278 74.06818106208048 12.632398972067989 H 0.0 **** 0.06
30043 H 49.78897129957163 72.71687777516564 13.739293536532927 H 0.0 **** 0.06
30044 H 50.70471207615054 72.4303733114759 12.239723087201952 H 0.0 **** 0.06
30045 H 48.96697192116925 72.8068204680904 12.162663634685373 H 0.0 **** 0.06
30046 C 141.48766878051967 87.26393632833125 143.91223238259556 C 0.0 **** -0.24
30047 H 140.51947542826542 87.76386254489262 143.93969312678388 H 0.0 **** 0.06
30048 H 141.3568578720604 86.23638063622582 143.5711348676261 H 0.0 **** 0.06
30049 H 141.92367293889845 87.26225337305837 144.91202799084505 H 0.0 **** 0.06
30050 H 142.15001854897827 87.79337399191462 143.22843183100986 H 0.0 **** 0.06
30051 C 67.77299673805732 69.81682054043485 84.34208377665917 C 0.0 **** -0.24
30052 H 66.68317820255618 69.86475125335849 84.35348257669145 H 0.0 **** 0.06
30053 H 68.13197370852549 69.4889528504435 85.31825078080101 H 0.0 **** 0.06
30054 H 68.17703461219958 70.80498148608204 84.11961794149607 H 0.0 **** 0.06
30055 H 68.09779704573668 69.11017675343142 83.57856167850673 H 0.0 **** 0.06
30056 C 132.68065778659553 168.8999734216611 39.335980118237785 C 0.0 **** -0.24
30057 H 132.22462204340763 169.88535533732656 39.23850411597516 H 0.0 **** 0.06
30058 H 132.1298992735091 168.31628860656065 40.07434303916966 H 0.0 **** 0.06
30059 H 133.71578963196845 169.00944987003663 39.6582496262879 H 0.0 **** 0.06
30060 H 132.65114234573755 168.3895267041196 38.37311425060608 H 0.0 **** 0.06
30061 C 32.00986071071398 157.10168102612255 112.57760448217795 C 0.0 **** -0.24
30062 H 32.65712933398825 156.22880820371014 112.66034527663763 H 0.0 **** 0.06
30063 H 32.03892212742558 157.47949467293694 111.55487040312269 H 0.0 **** 0.06
30064 H 32.35688871200327 157.87737595592375 113.26048560815872 H 0.0 **** 0.06
30065 H 30.988142779663164 156.8219491164266 112.8331376432439 H 0.0 **** 0.06
30066 C 157.13724504292824 68.85818667155976 88.18401123948965 C 0.0 **** -0.24
30067 H 157.75710114632193 69.61480904803255 88.66756550240686 H 0.0 **** 0.06
30068 H 156.25277137047922 68.67067240302202 88.79294671023757 H 0.0 **** 0.06
30069 H 157.70802972515895 67.93587207584892 88.0776425020592 H 0.0 **** 0.06
30070 H 156.83344488036602 69.21312337406204 87.199988857753 H 0.0 **** 0.06
30071 C 172.55917865593958 165.7970923226445 107.59213038054776 C 0.0 **** -0.24
30072 H 173.10851081253625 165.3021628329892 106.79216248533757 H 0.0 **** 0.06
30073 H 171.87516697209773 165.08647755383654 108.05714798272652 H 0.0 **** 0.06
30074 H 171.99064197413156 166.6317726946199 107.18041029444174 H 0.0 **** 0.06
30075 H 173.26078848424598 166.16859600345214 108.33869942373275 H 0.0 **** 0.06
30076 C 83.74555145299925 72.22076789845607 106.68682065949699 C 0.0 **** -0.24
30077 H 83.77848538602973 73.27672270447907 106.42054737361008 H 0.0 **** 0.06
30078 H 83.09989353860624 71.6895983112979 105.98766087524231 H 0.0 **** 0.06
30079 H 83.35313817044192 72.11276804699965 107.69811959455379 H 0.0 **** 0.06
30080 H 84.75226141694955 71.80326000897954 106.64088666730973 H 0.0 **** 0.06
30081 C 178.7117885032907 81.17510690332062 1.4900324805510934 C 0.0 **** -0.24
30082 H 179.7924408192503 81.2664016051018 1.5875541646270221 H 0.0 **** 0.06
30083 H 178.371758997302 81.76934344391384 0.6414362470935941 H 0.0 **** 0.06
30084 H 178.23287732871566 81.5341649113011 2.4011818229169535 H 0.0 **** 0.06
30085 H 178.44819329231842 80.12895300720288 1.3300221575955504 H 0.0 **** 0.06
30086 C 190.43497047706452 173.82955097504887 3.1817833998149467 C 0.0 **** -0.24
30087 H 189.36808656257546 173.6534043840787 3.315341448273614 H 0.0 **** 0.06
30088 H 190.63903318294803 174.04107435725737 2.1320510730168394 H 0.0 **** 0.06
30089 H 190.990455716151 172.94331574285104 3.4888663665748254 H 0.0 **** 0.06
30090 H 190.74101573096624 174.68016967340276 3.7903487647137695 H 0.0 **** 0.06
30091 C 116.21901069966302 35.89147706416088 32.69215739981291 C 0.0 **** -0.24
30092 H 116.58909669942133 36.32447876746929 31.762303335325157 H 0.0 **** 0.06
30093 H 115.992010456255 36.690572192024604 33.399188225823195 H 0.0 **** 0.06
30094 H 116.98049282879833 35.23679113299494 33.11589196188203 H 0.0 **** 0.06
30095 H 115.3154093353796 35.3172157426815 32.49086367635937 H 0.0 **** 0.06
30096 C 64.70134641032047 15.793716175810914 56.621237927589505 C 0.0 **** -0.24
30097 H 63.93293363610837 15.316579218258823 56.01313200724334 H 0.0 **** 0.06
30098 H 65.02638304396632 15.105458755565223 57.40149723940124 H 0.0 **** 0.06
30099 H 64.29615532366196 16.696173316652022 57.07741984798059 H 0.0 **** 0.06
30100 H 65.55160322613676 16.055246491379762 55.990419452350324 H 0.0 **** 0.06
30101 C 62.17323434149495 7.418245116745595 129.8842881014048 C 0.0 **** -0.24
30102 H 61.92992329056142 8.340250358639054 129.3573433944764 H 0.0 **** 0.06
30103 H 63.0296549466709 7.588092951028898 130.5376043836907 H 0.0 **** 0.06
30104 H 62.416901722293986 6.63978179602438 129.1611084875467 H 0.0 **** 0.06
30105 H 61.317094594875385 7.104104723532345 130.48092133862176 H 0.0 **** 0.06
30106 C 60.767206995981354 84.46392686661756 148.15864188427184 C 0.0 **** -0.24
30107 H 60.053278159102206 85.14756122192497 148.61622830280496 H 0.0 **** 0.06
30108 H 60.23926017927971 83.77379526741112 147.49974262060405 H 0.0 **** 0.06
30109 H 61.28138015335938 83.90050200577181 148.93781073025363 H 0.0 **** 0.06
30110 H 61.496083454944085 85.03308106005531 147.58096523474487 H 0.0 **** 0.06
30111 C 189.70729077215785 110.25688831587766 11.66857441432893 C 0.0 **** -0.24
30112 H 188.98533314752152 110.67847073621783 10.96919816867856 H 0.0 **** 0.06
30113 H 190.22804058423196 111.0633618986559 12.183934148700132 H 0.0 **** 0.06
30114 H 190.42928769685005 109.64872129759672 11.122517615661963 H 0.0 **** 0.06
30115 H 189.18692608510784 109.63525307369821 12.397317101589607 H 0.0 **** 0.06
30116 C 141.99917518030156 189.9917296747693 187.88595057003002 C 0.0 **** -0.24
30117 H 141.1457522345945 190.2010321853417 188.53171944502782 H 0.0 **** 0.06
30118 H 141.82964792752392 190.43647523563016 186.90526632786475 H 0.0 **** 0.06
30119 H 142.11913632996044 188.91315869541512 187.78024501573782 H 0.0 **** 0.06
30120 H 142.90089472699327 190.41686311031532 188.32669664573027 H 0.0 **** 0.06
30121 C 80.7903226315143 5.4354766246510735 27.419838013928512 C 0.0 **** -0.24
30122 H 80.55390800010164 4.412129064858796 27.710188770510655 H 0.0 **** 0.06
30123 H 79.88831277679307 5.925659808618391 27.051758704298763 H 0.0 **** 0.06
30124 H 81.54408683161523 5.425010503981973 26.632992630116505 H 0.0 **** 0.06
30125 H 81.17357774301789 5.979264896297295 28.282411770485098 H 0.0 **** 0.06
30126 C 148.0131921582943 79.06398229863086 4.121432513780263 C 0.0 **** -0.24
30127 H 147.4227808378965 79.12578328149854 3.207095157868025 H 0.0 **** 0.06
30128 H 148.43023739338008 80.04410406944936 4.351926027228274 H 0.0 **** 0.06
30129 H 148.82321931009878 78.3478954736242 3.9819177800836485 H 0.0 **** 0.06
30130 H 147.37644925458673 78.73670677729504 4.9430820013716925 H 0.0 **** 0.06
30131 C 132.0499305480588 52.905575567165045 133.89581642736496 C 0.0 **** -0.24
30132 H 132.08041992137828 53.49030007848995 132.97665250428292 H 0.0 **** 0.06
30133 H 131.09497567088943 52.38312133999953 133.9622428642986 H 0.0 **** 0.06
30134 H 132.162574314064 53.56946782350664 134.7529215175394 H 0.0 **** 0.06
30135 H 132.86241291313434 52.17901513684755 133.88989791386194 H 0.0 **** 0.06
30136 C 28.29341249736831 168.15113000931632 157.29701734025986 C 0.0 **** -0.24
30137 H 27.940269172978276 167.7916473011686 156.33018919104012 H 0.0 **** 0.06
30138 H 29.265188629341708 167.70911255910482 157.51549249097644 H 0.0 **** 0.06
30139 H 27.581467479645255 167.86567112841064 158.07122803114044 H 0.0 **** 0.06
30140 H 28.385284438427732 169.23688832673173 157.26994145245425 H 0.0 **** 0.06
30141 C 135.54299730646446 106.57739843717545 66.74933554176113 C 0.0 **** -0.24
30142 H 134.60523769068385 106.02378536263433 66.78804127004753 H 0.0 **** 0.06
30143 H 136.1784646902186 106.27382920961577 67.58164655564809 H 0.0 **** 0.06
30144 H 135.3366183634847 107.64555931027576 66.8195692362903 H 0.0 **** 0.06
30145 H 136.05079952479912 106.36593292814334 65.80799663318783 H 0.0 **** 0.06
30146 C 119.4657116169065 39.46442508962991 61.605512273410525 C 0.0 **** -0.24
30147 H 118.58655553536795 39.93208252015921 62.048142798973785 H 0.0 **** 0.06
30148 H 119.17635491285887 38.93415332832262 60.697590876019405 H 0.0 **** 0.06
30149 H 119.89904366176421 38.760411025472735 62.31605377296012 H 0.0 **** 0.06
30150 H 120.19991354848744 40.23196544345791 61.35980305342518 H 0.0 **** 0.06
30151 C 167.66224501925 19.885052716697416 37.09635257394825 C 0.0 **** -0.24
30152 H 168.2945962674678 19.577822308394218 37.929685682858576 H 0.0 **** 0.06
30153 H 167.23119907033674 20.86325277088845 37.308575847563134 H 0.0 **** 0.06
30154 H 166.86218978075127 19.157143188994354 36.961108276607035 H 0.0 **** 0.06
30155 H 168.26111602141842 19.939408119412718 36.187559042710916 H 0.0 **** 0.06
30156 C 129.64845680473098 145.29678003361914 73.08368694561703 C 0.0 **** -0.24
30157 H 130.20112330806023 144.619297408154 72.43243298562362 H 0.0 **** 0.06
30158 H 129.39728612513446 144.7841749275312 74.01218033492226 H 0.0 **** 0.06
30159 H 128.7329575733586 145.6130463842371 72.58374651397514 H 0.0 **** 0.06
30160 H 130.26200229947048 146.17017841331167 73.30424050905201 H 0.0 **** 0.06
30161 C 72.95488625544832 17.24878239586542 153.19675782168773 C 0.0 **** -0.24
30162 H 73.36833341335604 16.372241408255363 153.69503888191747 H 0.0 **** 0.06
30163 H 73.73550510642073 17.735421124753188 152.61189233065824 H 0.0 **** 0.06
30164 H 72.57284629364278 17.944797454876493 153.94333948533193 H 0.0 **** 0.06
30165 H 72.14374904736621 16.943116286633085 152.5366583442252 H 0.0 **** 0.06
30166 C 58.42018629642247 198.15331825705243 174.4178527073021 C 0.0 **** -0.24
30167 H 58.04769458643359 199.17721519379404 174.40198905843206 H 0.0 **** 0.06
30168 H 57.7059570903359 197.49929407426413 173.9171894460336 H 0.0 **** 0.06
30169 H 58.54874793341121 197.82932861569105 175.45049121832363 H 0.0 **** 0.06
30170 H 59.37896950685246 198.10794592341745 173.90057927262293 H 0.0 **** 0.06
30171 C 106.32362960304772 35.619855670686434 78.62936397691834 C 0.0 **** -0.24
30172 H 106.55473366056842 35.30425940265272 77.6120515426516 H 0.0 **** 0.06
30173 H 107.24846573914553 35.87012041141257 79.14998800895899 H 0.0 **** 0.06
30174 H 105.81911024247222 34.80885952965873 79.15453933386522 H 0.0 **** 0.06
30175 H 105.67371095360141 36.494300766095776 78.59939393873543 H 0.0 **** 0.06
30176 C 27.32389128841683 180.63005429490536 91.71216115683183 C 0.0 **** -0.24
30177 H 27.453257308325448 181.59951036119602 91.2319028597907 H 0.0 **** 0.06
30178 H 27.093696611994915 180.77529885428612 92.76724840146869 H 0.0 **** 0.06
30179 H 28.24285454414553 180.05184496677373 91.61570810991742 H 0.0 **** 0.06
30180 H 26.50473351983476 180.09329985030047 91.23181447301829 H 0.0 **** 0.06
30181 C 46.08488043955765 54.6784217402618 78.59840511912512 C 0.0 **** -0.24
30182 H 45.967217216499364 53.74207598356378 78.05268845407808 H 0.0 **** 0.06
30183 H 45.65407537026471 55.49410473520129 78.01722103517298 H 0.0 **** 0.06
30184 H 47.14537698281555 54.870594684070284 78.76550794405816 H 0.0 **** 0.06
30185 H 45.573165208442475 54.60617601060193 79.55880388421886 H 0.0 **** 0.06
30186 C 17.069791605620196 125.94895437372685 195.0940285414389 C 0.0 **** -0.24
30187 H 16.7346284824103 126.70652513615323 195.8016886858081 H 0.0 **** 0.06
30188 H 16.95485631514032 124.96024740257587 195.54050824940649 H 0.0 **** 0.06
30189 H 18.11891424511731 126.11782072900434 194.85133218153385 H 0.0 **** 0.06
30190 H 16.4710299554759 126.00934167819338 194.1856489263504 H 0.0 **** 0.06
30191 C 150.23124986861524 11.683078494178893 108.64100347711508 C 0.0 **** -0.24
30192 H 151.0901644674959 11.086785415037667 108.94990309067703 H 0.0 **** 0.06
30193 H 150.4932352701353 12.26589738136311 107.75816404199838 H 0.0 **** 0.06
30194 H 149.94737061736436 12.356816032894002 109.45048171518397 H 0.0 **** 0.06
30195 H 149.39557377578797 11.022952919360272 108.40724635966365 H 0.0 **** 0.06
30196 C 137.04641377349236 176.20418439648938 156.9582383817584 C 0.0 **** -0.24
30197 H 137.76362308754304 176.54328824958012 157.70531203674045 H 0.0 **** 0.06
30198 H 137.0739250902682 175.11599532568445 156.89535458026603 H 0.0 **** 0.06
30199 H 137.30306909552618 176.63097109656454 155.98832041880587 H 0.0 **** 0.06
30200 H 136.04503782063202 176.52648291412854 157.24396649122127 H 0.0 **** 0.06
30201 C 180.0320527774115 170.08436131701194 75.7607330677226 C 0.0 **** -0.24
30202 H 179.8794273485235 170.514460168848 76.75057756954116 H 0.0 **** 0.06
30203 H 180.98154700406218 170.4355775426034 75.35624503646633 H 0.0 **** 0.06
30204 H 179.2197039662354 170.39220265336215 75.10192974666015 H 0.0 **** 0.06
30205 H 180.04744639598846 168.9971826509936 75.83521970561273 H 0.0 **** 0.06
30206 C 127.2749831623278 138.79677035681436 171.8240021152769 C 0.0 **** -0.24
30207 H 128.28128472828132 139.15180324557372 172.04498282956465 H 0.0 **** 0.06
30208 H 127.11400406735501 137.8337899714213 172.3107353430641 H 0.0 **** 0.06
30209 H 127.15779739167203 138.68329180946523 170.74619888629582 H 0.0 **** 0.06
30210 H 126.54614812513509 139.5175318422539 172.1951261634093 H 0.0 **** 0.06
30211 C 158.35443675454735 161.16616748224 27.824720745868518 C 0.0 **** -0.24
30212 H 159.0674080752416 161.8882195296844 28.22043829613213 H 0.0 **** 0.06
30213 H 157.73936810353206 160.7791881137548 28.63893279930423 H 0.0 **** 0.06
30214 H 158.89306188327217 160.34377731784724 27.354091308912473 H 0.0 **** 0.06
30215 H 157.71626332452 161.65223078856565 27.086731708800073 H 0.0 **** 0.06
30216 C 47.972406442432145 64.35020719726424 56.996337321698775 C 0.0 **** -0.24
30217 H 47.81806557651976 63.27377119966462 57.060704174534294 H 0.0 **** 0.06
30218 H 47.104503019567915 64.8139831227366 56.526850116181095 H 0.0 **** 0.06
30219 H 48.86098620149477 64.55437438975139 56.399019608558916 H 0.0 **** 0.06
30220 H 48.105877865176154 64.75788841663274 57.99822408096537 H 0.0 **** 0.06
30221 C 56.06573538813447 104.8894313372598 197.3180260801625 C 0.0 **** -0.24
30222 H 56.83298687463552 104.95940907212395 196.54645367748594 H 0.0 **** 0.06
30223 H 55.6733153167625 105.88414956394848 197.53006811909597 H 0.0 **** 0.06
30224 H 56.500454999200045 104.46843642513988 198.22469737103933 H 0.0 **** 0.06
30225 H 55.25864969623326 104.24582314463817 196.96917819697018 H 0.0 **** 0.06
30226 C 125.5991197195695 172.61019257115245 103.61514382289153 C 0.0 **** -0.24
30227 H 126.26515841518125 173.45560096026938 103.78943325690429 H 0.0 **** 0.06
30228 H 124.70593227847041 172.71951174971136 104.2288385001068 H 0.0 **** 0.06
30229 H 126.11097827307978 171.6848947603547 103.87834612299886 H 0.0 **** 0.06
30230 H 125.31715103233697 172.58233929161236 102.56295680484055 H 0.0 **** 0.06
30231 C 50.692948013584555 62.90342551405297 60.19792557850457 C 0.0 **** -0.24
30232 H 51.67382705363383 63.36936753940617 60.10652531132237 H 0.0 **** 0.06
30233 H 50.094680958512754 63.454807216395125 60.92353459103839 H 0.0 **** 0.06
30234 H 50.80983656959938 61.871818860666735 60.53166872153122 H 0.0 **** 0.06
30235 H 50.19289500990209 62.917272274558584 59.228747073584515 H 0.0 **** 0.06
30236 C 83.41724855162306 197.6996923509567 190.7579553539452 C 0.0 **** -0.24
30237 H 84.36986367674484 198.07462439102895 191.1317374612105 H 0.0 **** 0.06
30238 H 83.36724020905348 196.6204916580104 190.9098327999365 H 0.0 **** 0.06
30239 H 83.33161642208171 197.9209957387864 189.69436021519886 H 0.0 **** 0.06
30240 H 82.5999438066109 198.1802449332202 191.29562611728625 H 0.0 **** 0.06
30241 C 132.3005582775627 5.433096013909179 83.435372389311 C 0.0 **** -0.24
30242 H 131.26735001877648 5.662740550494121 83.17223973602032 H 0.0 **** 0.06
30243 H 132.5096352559687 5.802197188524978 84.4396322315049 H 0.0 **** 0.06
30244 H 132.97153220481425 5.915430860021523 82.72356146053639 H 0.0 **** 0.06
30245 H 132.45188905039925 4.354754779381139 83.40427848530626 H 0.0 **** 0.06
30246 C 133.13763804098926 39.695310958071715 187.48207259023243 C 0.0 **** -0.24
30247 H 133.59313044654377 40.685631335739544 187.4954481852485 H 0.0 **** 0.06
30248 H 132.05966772343893 39.78982693601661 187.61534831941606 H 0.0 **** 0.06
30249 H 133.55342777800283 39.093725153727775 188.2895179864119 H 0.0 **** 0.06
30250 H 133.34478701694778 39.213688005628356 186.52620422817824 H 0.0 **** 0.06
30251 C 54.41379686223996 20.48114328731951 104.57191889770678 C 0.0 **** -0.24
30252 H 54.21955803954074 21.50534347286498 104.2529565965269 H 0.0 **** 0.06
30253 H 54.208956946129604 19.79940827226426 103.74742109533292 H 0.0 **** 0.06
30254 H 53.770450798334366 20.23468837102871 105.41652087268108 H 0.0 **** 0.06
30255 H 55.458077397125265 20.38626696884681 104.87129717623048 H 0.0 **** 0.06
30256 C 81.53428885121312 188.5038940554546 165.86158220731494 C 0.0 **** -0.24
30257 H 82.48540520375425 188.10305114069445 165.51393399159338 H 0.0 **** 0.06
30258 H 80.7436224810235 188.22144898016947 165.16584722061742 H 0.0 **** 0.06
30259 H 81.59727930976157 189.59138413935105 165.91786931028273 H 0.0 **** 0.06
30260 H 81.30997919630957 188.10215521148675 166.85015379366183 H 0.0 **** 0.06
30261 C 36.96253390962087 92.09197596845001 20.298027034432096 C 0.0 **** -0.24
30262 H 36.67045572749123 91.54552163292189 21.195718358401194 H 0.0 **** 0.06
30263 H 36.72107273340487 93.14824934706297 20.42211877767714 H 0.0 **** 0.06
30264 H 36.42087675034844 91.69346645665408 19.4392852767501 H 0.0 **** 0.06
30265 H 38.033541232901655 91.97902978722487 20.13631707885672 H 0.0 **** 0.06
30266 C 148.7882870607417 173.34473609565538 12.10566435573557 C 0.0 **** -0.24
30267 H 147.8228850205085 173.58199702683075 12.551185180234285 H 0.0 **** 0.06
30268 H 148.64705480907358 172.6377023892851 11.287532034617733 H 0.0 **** 0.06
30269 H 149.4377246481464 172.90117143477627 12.861035069801346 H 0.0 **** 0.06
30270 H 149.24673628189424 174.25671942599794 11.72367823993865 H 0.0 **** 0.06
30271 C 55.35881938859404 122.44411961785636 21.197885610533547 C 0.0 **** -0.24
30272 H 54.6010345733809 122.47222233493841 20.414641649797318 H 0.0 **** 0.06
30273 H 55.085401645425904 123.13619386605467 21.99356433181913 H 0.0 **** 0.06
30274 H 56.32324744225197 122.73201497683021 20.780583018547873 H 0.0 **** 0.06
30275 H 55.42551091234182 121.4332301700523 21.60172527680203 H 0.0 **** 0.06
30276 C 86.48200429080407 170.53339296751793 147.24860569086377 C 0.0 **** -0.24
30277 H 85.60350598209521 170.17753027694422 146.7101549928048 H 0.0 **** 0.06
30278 H 86.51488385736127 171.62248919891294 147.21012156474941 H 0.0 **** 0.06
30279 H 87.38132187869576 170.12536684666537 146.78620838979322 H 0.0 **** 0.06
30280 H 86.42844560540402 170.20723086884664 148.2876752037106 H 0.0 **** 0.06
30281 C 22.924391108581517 23.3542078034738 198.07731552021687 C 0.0 **** -0.24
30282 H 22.91914343874788 22.289093991884755 198.30890073819882 H 0.0 **** 0.06
30283 H 22.642963323308607 23.500974069941208 197.0336753588213 H 0.0 **** 0.06
30284 H 23.92342631699009 23.757837870266428 198.24397120764834 H 0.0 **** 0.06
30285 H 22.211939449389746 23.86951786770365 198.7219145156953 H 0.0 **** 0.06
30286 C 132.85458580246225 23.137361137182296 156.8064126450032 C 0.0 **** -0.24
30287 H 133.5523473199083 22.920575883256276 155.99744249409827 H 0.0 **** 0.06
30288 H 131.84971236296968 22.83546481026127 156.51006205124236 H 0.0 **** 0.06
30289 H 132.8656220448823 24.2060783699184 157.0191597906502 H 0.0 **** 0.06
30290 H 133.15131716771182 22.58607292046534 157.69902089873247 H 0.0 **** 0.06
30291 C 37.82487859358821 2.2977195421755425 113.19341095559577 C 0.0 **** -0.24
30292 H 38.51195937494299 2.4996442692740857 112.3710229024129 H 0.0 **** 0.06
30293 H 37.906975463911294 3.0893514582061528 113.93826711522505 H 0.0 **** 0.06
30294 H 38.07767063851992 1.3403898824553266 113.6503954313797 H 0.0 **** 0.06
30295 H 36.80513193894734 2.2595838538315434 112.81240429239634 H 0.0 **** 0.06
30296 C 89.58709085221608 4.990867936731888 88.01738813623899 C 0.0 **** -0.24
30297 H 90.13762589865019 5.344823548664749 88.88941639552422 H 0.0 **** 0.06
30298 H 89.8971923226402 3.973021136491724 87.78075624262624 H 0.0 **** 0.06
30299 H 89.79469631697583 5.642200539680289 87.16863759265686 H 0.0 **** 0.06
30300 H 88.5189350904322 5.003908751060749 88.23314234561951 H 0.0 **** 0.06
30301 C 81.93359266344982 127.34697476009757 30.853151075167375 C 0.0 **** -0.24
30302 H 81.2513134807055 127.05974802896634 30.05252280707498 H 0.0 **** 0.06
30303 H 82.77274009345177 127.9014838843641 30.432583704446586 H 0.0 **** 0.06
30304 H 82.30290043689956 126.45245748526963 31.353803925347734 H 0.0 **** 0.06
30305 H 81.40600357076562 127.97492494761127 31.570956751939434 H 0.0 **** 0.06
30306 C 188.82998591949166 152.0908460777967 53.58954110998644 C 0.0 **** -0.24
30307 H 189.35944436691406 151.1518869212008 53.751099571145915 H 0.0 **** 0.06
30308 H 189.15189684074642 152.53037442959098 52.645209134834886 H 0.0 **** 0.06
30309 H 189.05290000332585 152.777932168598 54.40540977750362 H 0.0 **** 0.06
30310 H 187.75760904164525 151.90223098383194 53.55577973592665 H 0.0 **** 0.06
30311 C 126.26366686161361 192.6825328555003 139.75576378873953 C 0.0 **** -0.24
30312 H 125.81344760755985 192.54324570778772 140.73836716009836 H 0.0 **** 0.06
30313 H 127.348203127293 192.723479417229 139.85538880446254 H 0.0 **** 0.06
30314 H 125.9024959624087 193.6132642579131 139.3190873580665 H 0.0 **** 0.06
30315 H 125.98915855357933 191.84836899821767 139.11024111242662 H 0.0 **** 0.06
30316 C 150.25223903637215 147.20634533671355 86.01451429260368 C 0.0 **** -0.24
30317 H 150.33002665113844 146.17621589155902 86.3628260853767 H 0.0 **** 0.06
30318 H 150.3242361140325 147.8838157425408 86.86613685022908 H 0.0 **** 0.06
30319 H 149.29244495050622 147.34949040239513 85.5170160423892 H 0.0 **** 0.06
30320 H 151.06058879010334 147.41543687402444 85.31454138915026 H 0.0 **** 0.06
30321 C 185.09810319953496 155.64006014360837 53.43842127637356 C 0.0 **** -0.24
30322 H 184.7421499485136 156.1076266952498 52.520642177020534 H 0.0 **** 0.06
30323 H 184.8971667616725 154.56926835994364 53.401324219966625 H 0.0 **** 0.06
30324 H 184.58232355588356 156.07761918040978 54.2927444673752 H 0.0 **** 0.06
30325 H 186.17137836933972 155.80497840925352 53.53695590750357 H 0.0 **** 0.06
30326 C 49.28496715865566 106.47405231806093 114.09603518864631 C 0.0 **** -0.24
30327 H 48.77903465941762 106.50011953725087 115.06145711778777 H 0.0 **** 0.06
30328 H 48.5786331086469 106.16508953828227 113.3248997189715 H 0.0 **** 0.06
30329 H 50.111372670943666 105.76445018308314 114.13886539112238 H 0.0 **** 0.06
30330 H 49.6693139990698 107.46619558668732 113.8605252931618 H 0.0 **** 0.06
30331 C 198.63968720731674 85.70284862870434 179.66866588230465 C 0.0 **** -0.24
30332 H 199.4564808272579 85.42137794830305 180.33404182300262 H 0.0 **** 0.06
30333 H 199.04049985903657 86.23901826446195 178.8084292735909 H 0.0 **** 0.06
30334 H 197.9395275179662 86.34434796985357 180.20467213925195 H 0.0 **** 0.06
30335 H 198.12215678477224 84.80450111687094 179.32961171366586 H 0.0 **** 0.06
30336 C 4.405244148527913 135.00176966009118 30.217177767563356 C 0.0 **** -0.24
30337 H 4.508983617343176 135.5316458216405 29.27037997752565 H 0.0 **** 0.06
30338 H 4.960386243335051 134.0649801498241 30.172452574287234 H 0.0 **** 0.06
30339 H 3.3516859408026676 134.79165545923576 30.40161151955199 H 0.0 **** 0.06
30340 H 4.798913541593691 135.61978950874166 31.02429582808729 H 0.0 **** 0.06
30341 C 162.9315022031783 8.63297080984379 116.97800780394596 C 0.0 **** -0.24
30342 H 163.4510475828348 9.536496186061058 116.65922077283756 H 0.0 **** 0.06
30343 H 163.24108979341452 7.795277670823907 116.35258200918526 H 0.0 **** 0.06
30344 H 161.85628758109047 8.779060561127856 116.8833508110107 H 0.0 **** 0.06
30345 H 163.17964195172794 8.4197975039217 118.01836039616282 H 0.0 **** 0.06
30346 C 62.80267305031825 81.91360693752128 18.39933403013646 C 0.0 **** -0.24
30347 H 62.27051293543332 82.20041219256521 17.492220451492585 H 0.0 **** 0.06
30348 H 62.233968257867815 81.14793106306175 18.927416416182723 H 0.0 **** 0.06
30349 H 62.92137444199706 82.78700866540794 19.04135903401317 H 0.0 **** 0.06
30350 H 63.78436219876647 81.5199551383217 18.13638279318917 H 0.0 **** 0.06
30351 C 40.08643738540303 190.0575473178134 58.15102806597008 C 0.0 **** -0.24
30352 H 40.83337857113395 189.4434822662028 58.65477271746465 H 0.0 **** 0.06
30353 H 39.30973799363778 190.34063264139635 58.86111005153259 H 0.0 **** 0.06
30354 H 39.644009413383344 189.49173533056438 57.3320690107775 H 0.0 **** 0.06
30355 H 40.56262718632246 190.95600516366306 57.756602551502056 H 0.0 **** 0.06
30356 C 68.94867855284134 16.815564303736835 37.79763338910101 C 0.0 **** -0.24
30357 H 67.97418264771603 16.627109774398605 37.345623064902014 H 0.0 **** 0.06
30358 H 68.81091091202934 17.222694655425414 38.799944550098985 H 0.0 **** 0.06
30359 H 69.49948912604656 17.531366936654535 37.18669967336885 H 0.0 **** 0.06
30360 H 69.50782856068612 15.881656327821872 37.85765714100705 H 0.0 **** 0.06
30361 C 109.66034460404512 28.70727331449241 161.52929875153364 C 0.0 **** -0.24
30362 H 109.85337712732803 27.954927174075095 162.2943402030264 H 0.0 **** 0.06
30363 H 109.78542795595388 28.261966398709774 160.54261411349236 H 0.0 **** 0.06
30364 H 110.36215569875696 29.532583375704988 161.64838765634565 H 0.0 **** 0.06
30365 H 108.64147538558956 29.07887702084848 161.63474004389766 H 0.0 **** 0.06
30366 C 63.74457322063523 44.22726548842303 88.70192899182814 C 0.0 **** -0.24
30367 H 64.4377042355822 44.032908499335306 87.88271017754721 H 0.0 **** 0.06
30368 H 63.35205713036083 45.24047419512945 88.61384423305878 H 0.0 **** 0.06
30369 H 64.26735152591942 44.12121979121862 89.65188047010008 H 0.0 **** 0.06
30370 H 62.92183401480577 43.51307030801317 88.657655480556 H 0.0 **** 0.06
30371 C 176.00285562200258 107.65229334875212 195.60030154191085 C 0.0 **** -0.24
30372 H 175.74071738164525 107.63982958722448 194.5420596537407 H 0.0 **** 0.06
30373 H 176.41717592758727 108.62594620182085 195.8597903942843 H 0.0 **** 0.06
30374 H 176.74334709630136 106.87726744456975 195.79951228236223 H 0.0 **** 0.06
30375 H 175.11043444100528 107.46517401383863 196.1971938806605 H 0.0 **** 0.06
30376 C 127.59565786186943 94.51591204899023 123.47839104286635 C 0.0 **** -0.24
30377 H 128.55495985808776 94.89164540105298 123.12212314343637 H 0.0 **** 0.06
30378 H 126.95565936070756 95.35587656036569 123.75059178660214 H 0.0 **** 0.06
30379 H 127.75501105606105 93.88248268600341 124.35062751840047 H 0.0 **** 0.06
30380 H 127.11765266179975 93.93555267669183 122.6892568916266 H 0.0 **** 0.06
30381 C 158.66704030528513 158.23181528725806 80.78508040358531 C 0.0 **** -0.24
30382 H 159.17003689409245 157.363464291285 80.35892001869047 H 0.0 **** 0.06
30383 H 159.40227429154376 158.87785435739602 81.26676310792851 H 0.0 **** 0.06
30384 H 157.9346802094376 157.90171620635874 81.52243377116872 H 0.0 **** 0.06
30385 H 158.16159384635793 158.78311179816234 79.99296507769924 H 0.0 **** 0.06
30386 C 192.1061970209426 80.38715188934427 172.1791851065167 C 0.0 **** -0.24
30387 H 192.4301173585154 79.80087655359702 171.3189295976802 H 0.0 **** 0.06
30388 H 191.02467299859006 80.51941909930287 172.14096379815146 H 0.0 **** 0.06
30389 H 192.59212383471524 81.36218989585717 172.1579558352605 H 0.0 **** 0.06
30390 H 192.37685735249795 79.86546259126158 173.0970118535013 H 0.0 **** 0.06
30391 C 169.15412539336006 139.40094218928593 138.64925631843468 C 0.0 **** -0.24
30392 H 169.80502934645665 140.14016303742702 138.18126990178305 H 0.0 **** 0.06
30393 H 169.7198387329384 138.4900078791241 138.84299265067105 H 0.0 **** 0.06
30394 H 168.3208567882586 139.17730210047287 137.98204101916696 H 0.0 **** 0.06
30395 H 168.76947956434782 139.79839564777922 139.5890164143237 H 0.0 **** 0.06
30396 C 154.24603388647589 27.531954571082792 167.9594125967579 C 0.0 **** -0.24
30397 H 154.96872316706242 27.714173167222782 168.7546183962333 H 0.0 **** 0.06
30398 H 153.48124115108666 28.308605476469467 167.97857331603694 H 0.0 **** 0.06
30399 H 153.77902378090457 26.558702638888832 168.11037259214203 H 0.0 **** 0.06
30400 H 154.75490337209567 27.54542475330169 166.99553807956607 H 0.0 **** 0.06
30401 C 137.15212108497985 99.21496470453516 32.985270785659395 C 0.0 **** -0.24
30402 H 136.91322360507337 98.16223160118224 33.13018679927181 H 0.0 **** 0.06
30403 H 137.2844025729609 99.6944362893949 33.95573475363288 H 0.0 **** 0.06
30404 H 136.33760551850742 99.70148133162624 32.4469858384394 H 0.0 **** 0.06
30405 H 138.07139319240162 99.30250677031881 32.40722335266078 H 0.0 **** 0.06
30406 C 80.11358102291854 196.62070690382296 57.9413066356411 C 0.0 **** -0.24
30407 H 80.25286303123391 197.28111554999833 58.797248004029015 H 0.0 **** 0.06
30408 H 80.71699407716108 195.7224236467784 58.07465795194483 H 0.0 **** 0.06
30409 H 80.4221733591657 197.13545941960007 57.031764285825815 H 0.0 **** 0.06
30410 H 79.06148762196528 196.34329290888616 57.86357200810984 H 0.0 **** 0.06
30411 C 50.60707883087787 24.010863891498673 184.54237095811533 C 0.0 **** -0.24
30412 H 50.97948280002851 23.986730643569018 185.56581784113337 H 0.0 **** 0.06
30413 H 49.542252929982 24.246601706991896 184.5494558133692 H 0.0 **** 0.06
30414 H 50.76102832361778 23.036924991088824 184.07744380140934 H 0.0 **** 0.06
30415 H 51.144876636227025 24.7721906909932 183.97749424275224 H 0.0 **** 0.06
30416 C 14.716557633926698 151.6249983528175 150.94459974982328 C 0.0 **** -0.24
30417 H 13.64554968471677 151.71607457219295 150.767617415983 H 0.0 **** 0.06
30418 H 14.989580144028395 150.57018252960648 150.98257318267287 H 0.0 **** 0.06
30419 H 14.969275489818585 152.1002093199012 151.89323188962982 H 0.0 **** 0.06
30420 H 15.261466762571217 152.11283656222415 150.13707291948015 H 0.0 **** 0.06
30421 C 191.32100825446173 138.45430516151765 65.94968365211707 C 0.0 **** -0.24
30422 H 191.92822643316632 139.29991182805986 66.2746946661868 H 0.0 **** 0.06
30423 H 190.26950831588096 138.66693960252667 66.14110241588475 H 0.0 **** 0.06
30424 H 191.61837912252736 137.56161636977458 66.49914516252232 H 0.0 **** 0.06
30425 H 191.47001118555866 138.2901082586872 64.88184648529335 H 0.0 **** 0.06
30426 C 44.43275644486984 183.3630597456972 165.05854367235213 C 0.0 **** -0.24
30427 H 44.11301339046828 183.54360254024166 166.08478943184548 H 0.0 **** 0.06
30428 H 44.57171733303453 184.31698064160912 164.5495775801789 H 0.0 **** 0.06
30429 H 43.6726049856363 182.78059414673658 164.5383069381479 H 0.0 **** 0.06
30430 H 45.372827875626356 182.81176877644626 165.0623705907409 H 0.0 **** 0.06
30431 C 166.60814766705693 92.24663295247856 73.35967520548598 C 0.0 **** -0.24
30432 H 166.3939859119663 93.28970394346555 73.12593958296242 H 0.0 **** 0.06
30433 H 167.6002021546974 92.17002912238414 73.80373760007046 H 0.0 **** 0.06
30434 H 166.57235132876724 91.65523776888861 72.44476371188654 H 0.0 **** 0.06
30435 H 165.86397359455407 91.87188035376568 74.06300239764647 H 0.0 **** 0.06
30436 C 163.9532579750815 133.4016087879636 71.01863803652466 C 0.0 **** -0.24
30437 H 164.73730294873883 134.1035035489454 70.73369959353414 H 0.0 **** 0.06
30438 H 163.0791623429816 133.5585705322639 70.3858588171671 H 0.0 **** 0.06
30439 H 163.68188469069008 133.56322810188817 72.06117359405395 H 0.0 **** 0.06
30440 H 164.31516330760633 132.3810854654647 70.89053894564876 H 0.0 **** 0.06
30441 C 177.81601804575052 78.95784515242622 67.37684353833606 C 0.0 **** -0.24
30442 H 178.33893434953416 79.46407609432498 66.56581120748376 H 0.0 **** 0.06
30443 H 176.99985357655223 79.58786203802867 67.73103271648029 H 0.0 **** 0.06
30444 H 178.51131298899566 78.76973470615832 68.19574836360374 H 0.0 **** 0.06
30445 H 177.4155775444865 78.01123896697482 67.01581890230909 H 0.0 **** 0.06
30446 C 33.371879244470506 3.189340018688995 1.2348265314697642 C 0.0 **** -0.24
30447 H 33.402336781654185 3.724106859701351 0.2852479631905851 H 0.0 **** 0.06
30448 H 34.243429072797284 2.539236513393007 1.3133950879122835 H 0.0 **** 0.06
30449 H 32.46367243237927 2.587331934555209 1.2821273291089312 H 0.0 **** 0.06
30450 H 33.37650174805884 3.9052875814941785 2.055443590141266 H 0.0 **** 0.06
30451 C 138.9562019033081 32.41228329902199 100.33723876465851 C 0.0 **** -0.24
30452 H 137.98697201762445 31.915602202880507 100.29220544036488 H 0.0 **** 0.06
30453 H 138.8883818781498 33.38517623910025 99.84902724979008 H 0.0 **** 0.06
30454 H 139.70172103763525 31.80059309483687 99.82999426877953 H 0.0 **** 0.06
30455 H 139.2457669623085 32.54844393987128 101.3798892666035 H 0.0 **** 0.06
30456 C 20.64650597980072 129.9857528243069 21.644219409528347 C 0.0 **** -0.24
30457 H 21.040141649429046 130.44052464876248 20.735514167523775 H 0.0 **** 0.06
30458 H 19.990795877558327 130.6948581014009 22.149877058755862 H 0.0 **** 0.06
30459 H 21.472018483254402 129.7189934593723 22.304422589456806 H 0.0 **** 0.06
30460 H 20.082555405075254 129.0899527861878 21.387031362025496 H 0.0 **** 0.06
30461 C 30.253333470364964 53.78547346982259 133.86813564340974 C 0.0 **** -0.24
30462 H 30.804599408858166 53.91394100722977 134.7993948067307 H 0.0 **** 0.06
30463 H 30.950369921577277 53.788890566056295 133.03086497908137 H 0.0 **** 0.06
30464 H 29.54100736852004 54.6028989358889 133.75243415958423 H 0.0 **** 0.06
30465 H 29.716953557827026 52.836450286071795 133.89150839666146 H 0.0 **** 0.06
30466 C 85.87526587521634 85.47469017203201 109.91810344641317 C 0.0 **** -0.24
30467 H 85.49026349049439 84.90591988324445 110.76414906698776 H 0.0 **** 0.06
30468 H 85.73186819684034 84.90294145996535 109.00079040488507 H 0.0 **** 0.06
30469 H 86.937570238918 85.66810949890021 110.06366808265221 H 0.0 **** 0.06
30470 H 85.33999600177498 86.42145119886987 109.84366280111942 H 0.0 **** 0.06
30471 C 61.05274396224385 1.8995764937558377 173.46226655930104 C 0.0 **** -0.24
30472 H 60.146125097322255 2.325860582379306 173.89317005074935 H 0.0 **** 0.06
30473 H 60.97250118502022 1.9005657740990145 172.37532277248235 H 0.0 **** 0.06
30474 H 61.17650215310944 0.876299757964901 173.8171106368174 H 0.0 **** 0.06
30475 H 61.91364261132534 2.495425297502784 173.76451875405945 H 0.0 **** 0.06
30476 C 73.51597437919872 31.437455427977568 198.05889247996407 C 0.0 **** -0.24
30477 H 73.07639273505272 32.4345059395101 198.10029246219239 H 0.0 **** 0.06
30478 H 74.52597863221767 31.469197326260286 198.46757639682448 H 0.0 **** 0.06
30479 H 73.55182246522239 31.100038836273654 197.023723116707 H 0.0 **** 0.06
30480 H 72.90713637642702 30.749290661642362 198.6454265598453 H 0.0 **** 0.06
30481 C 5.424759808597827 22.97383589431763 162.26751182548736 C 0.0 **** -0.24
30482 H 4.615571710809533 22.25592218045027 162.1333283463007 H 0.0 **** 0.06
30483 H 6.382120706116773 22.469141220341115 162.13788127585073 H 0.0 **** 0.06
30484 H 5.370123154476445 23.39952216495044 163.26925865401267 H 0.0 **** 0.06
30485 H 5.329560034452527 23.76980620677196 161.5284272810729 H 0.0 **** 0.06
30486 C 25.166129190752827 67.54101060621856 155.09556202959237 C 0.0 **** -0.24
30487 H 24.485320037929 68.39034877777695 155.14215845975798 H 0.0 **** 0.06
30488 H 24.687843383264465 66.72123967642769 154.55957323253594 H 0.0 **** 0.06
30489 H 25.414991586662552 67.21850659182549 156.1068455518892 H 0.0 **** 0.06
30490 H 26.07721209306368 67.83429508287527 154.57327584385166 H 0.0 **** 0.06
30491 C 148.88394747070765 101.83430486064537 43.461408945480855 C 0.0 **** -0.24
30492 H 149.28113145029374 101.31239361024802 42.590512151176114 H 0.0 **** 0.06
30493 H 149.46715536118967 102.7386747598668 43.63953631486277 H 0.0 **** 0.06
30494 H 148.9459910519929 101.18388718422091 44.334095103604454 H 0.0 **** 0.06
30495 H 147.84290624836433 102.10245705357852 43.280482817673345 H 0.0 **** 0.06
30496 C 38.747646506099784 60.37010217182478 14.573856850387983 C 0.0 **** -0.24
30497 H 39.67965990219855 60.80537455654246 14.212731287711897 H 0.0 **** 0.06
30498 H 38.0831810543628 61.1652569580873 14.911522669228148 H 0.0 **** 0.06
30499 H 38.960074394864336 59.69591445543773 15.40323009855905 H 0.0 **** 0.06
30500 H 38.27024884938979 59.81533265408615 13.766851325825932 H 0.0 **** 0.06
30501 C 84.56439797245412 20.57731710425429 65.3920096872447 C 0.0 **** -0.24
30502 H 84.00788234368252 20.09703496312727 66.19669291542675 H 0.0 **** 0.06
30503 H 85.58577506303538 20.196186705789444 65.37935457041453 H 0.0 **** 0.06
30504 H 84.57998568208211 21.655154555412707 65.55462315958408 H 0.0 **** 0.06
30505 H 84.08386418361135 20.35966612998004 64.43806785591278 H 0.0 **** 0.06
30506 C 141.94268337227842 189.329944808554 177.0305057181518 C 0.0 **** -0.24
30507 H 142.33207774274047 188.7741337462132 176.17695150703028 H 0.0 **** 0.06
30508 H 141.16163540781753 188.74721846831585 177.51804315729785 H 0.0 **** 0.06
30509 H 141.52846073541724 190.27818314020104 176.6867785403551 H 0.0 **** 0.06
30510 H 142.7504707989086 189.5210860252149 177.73714508680345 H 0.0 **** 0.06
30511 C 192.22281889017032 6.4977232784121455 130.47238436564407 C 0.0 **** -0.24
30512 H 192.46588483328472 7.268999991906519 131.20259039154553 H 0.0 **** 0.06
30513 H 191.79809691521513 5.634565105470635 130.98436960281487 H 0.0 **** 0.06
30514 H 193.12845553773252 6.198341399347598 129.94481310391484 H 0.0 **** 0.06
30515 H 191.49905482921682 6.889730948009422 129.75839610545404 H 0.0 **** 0.06
30516 C 63.503570728628915 151.83309083998978 58.41220176172011 C 0.0 **** -0.24
30517 H 62.41493021071591 151.81702183353673 58.46558991815263 H 0.0 **** 0.06
30518 H 63.9119543805341 151.08332205765197 59.08921301002741 H 0.0 **** 0.06
30519 H 63.86641454795051 152.81990919748915 58.69938388321066 H 0.0 **** 0.06
30520 H 63.819794022669726 151.6128424490426 57.392608138556625 H 0.0 **** 0.06
30521 C 132.28169012400102 66.96348703524939 135.44785121950693 C 0.0 **** -0.24
30522 H 131.77514870492425 67.9282616605143 135.43051956357598 H 0.0 **** 0.06
30523 H 132.0562988348355 66.45181040567121 136.38445813468314 H 0.0 **** 0.06
30524 H 133.35681761708483 67.11555785431716 135.36638362360912 H 0.0 **** 0.06
30525 H 131.93569499946034 66.35740120556318 134.6106069172654 H 0.0 **** 0.06
30526 C 188.98897213822679 93.3124285518586 110.66080953493304 C 0.0 **** -0.24
30527 H 189.06997244700693 94.31993444749003 110.25410389249583 H 0.0 **** 0.06
30528 H 188.36802711459643 93.33039207261652 111.55721753403958 H 0.0 **** 0.06
30529 H 189.98287602560603 92.94261838016087 110.91467407050405 H 0.0 **** 0.06
30530 H 188.53664272200965 92.65595826225888 109.91807100673591 H 0.0 **** 0.06
30531 C 193.10987896479278 78.20855522020724 9.124393587515925 C 0.0 **** -0.24
30532 H 193.9843182806728 78.00689779391382 9.74337731519492 H 0.0 **** 0.06
30533 H 192.71125470626362 77.26876569402947 8.74232156687816 H 0.0 **** 0.06
30534 H 193.39474934266428 78.84927472313666 8.28994582643287 H 0.0 **** 0.06
30535 H 192.34924930213614 78.70902209627786 9.72331853828544 H 0.0 **** 0.06
30536 C 47.466398943086574 116.26772274522943 164.15894087124957 C 0.0 **** -0.24
30537 H 47.498930646225915 117.27717787196343 164.570164339281 H 0.0 **** 0.06
30538 H 46.43029048663698 115.93395649254592 164.09516739307003 H 0.0 **** 0.06
30539 H 48.026271255249526 115.5943442013347 164.80731653041727 H 0.0 **** 0.06
30540 H 47.911122080648795 116.26719061419891 163.16400985822736 H 0.0 **** 0.06
30541 C 67.70131282195243 57.6093378770378 182.1936783891719 C 0.0 **** -0.24
30542 H 66.78589307598138 57.0735825240602 181.94422187096197 H 0.0 **** 0.06
30543 H 68.38587878682057 56.93706112200351 182.71085155716483 H 0.0 **** 0.06
30544 H 67.46300321985775 58.45398855779396 182.84047546210292 H 0.0 **** 0.06
30545 H 68.16916198597006 57.9725653468592 181.2796638340537 H 0.0 **** 0.06
30546 C 59.09304074052693 161.74141555385924 6.212584974866701 C 0.0 **** -0.24
30547 H 58.97302529134245 160.6634258256099 6.326839737225839 H 0.0 **** 0.06
30548 H 59.990056640011744 162.06393109413253 6.740638827760279 H 0.0 **** 0.06
30549 H 58.22309453950501 162.24980006661008 6.627059888614951 H 0.0 **** 0.06
30550 H 59.186069556242444 161.98557489311852 5.1537022764227345 H 0.0 **** 0.06
30551 C 101.0892824864396 80.45958509805013 23.586200993791635 C 0.0 **** -0.24
30552 H 100.27755760022447 81.18725186890856 23.59703939390664 H 0.0 **** 0.06
30553 H 102.03794566647377 80.9719995019135 23.74692851958531 H 0.0 **** 0.06
30554 H 101.10867584348682 79.95217509911566 22.622121300262165 H 0.0 **** 0.06
30555 H 100.93269171666054 79.72830420771965 24.378717401738697 H 0.0 **** 0.06
30556 C 107.83545209060566 95.01513297606547 195.2185041529158 C 0.0 **** -0.24
30557 H 107.94606054018689 96.07141396845307 195.46436371649702 H 0.0 **** 0.06
30558 H 108.0783007885793 94.4118156890745 196.0926817223721 H 0.0 **** 0.06
30559 H 108.50916771777165 94.76016021033408 194.40086131490727 H 0.0 **** 0.06
30560 H 106.80623797804364 94.81915553344524 194.91522726850422 H 0.0 **** 0.06
30561 C 83.52803503665731 112.86911234848193 101.65053157490195 C 0.0 **** -0.24
30562 H 84.15473371940305 113.43507700267676 100.96232926231684 H 0.0 **** 0.06
30563 H 83.98281917513359 112.87153521368325 102.64126120777223 H 0.0 **** 0.06
30564 H 83.43485515714923 111.84205777004482 101.29648199927811 H 0.0 **** 0.06
30565 H 82.5404737334174 113.32657534141032 101.70203832527477 H 0.0 **** 0.06
30566 C 26.19964512071634 171.93911481084044 129.08913968953328 C 0.0 **** -0.24
30567 H 25.985247299952462 170.9948844579862 128.58969672653208 H 0.0 **** 0.06
30568 H 25.351728371971163 172.22045579830456 129.71402458212842 H 0.0 **** 0.06
30569 H 26.37425944463571 172.71371611199484 128.34287544045443 H 0.0 **** 0.06
30570 H 27.088183441588953 171.82741284504345 129.71110111992274 H 0.0 **** 0.06
30571 C 98.7338767334214 85.32756687389184 47.217154563773136 C 0.0 **** -0.24
30572 H 98.29307228418187 85.64372240942464 48.16217349500582 H 0.0 **** 0.06
30573 H 98.0571642065855 84.63766064859783 46.71265060358493 H 0.0 **** 0.06
30574 H 99.68388904743617 84.82857911048825 47.40902040840774 H 0.0 **** 0.06
30575 H 98.90235440680675 86.1996757581669 46.58558426349077 H 0.0 **** 0.06
30576 C 189.2621243162774 180.46785598739436 37.65897914697973 C 0.0 **** -0.24
30577 H 188.85192035957866 179.46524372532934 37.78441866491217 H 0.0 **** 0.06
30578 H 190.27336797396404 180.3990478752587 37.25749265868349 H 0.0 **** 0.06
30579 H 189.2870354833296 180.97368419859598 38.62420654910052 H 0.0 **** 0.06
30580 H 188.6353444660416 181.0319408928705 36.96837005453432 H 0.0 **** 0.06
30581 C 152.4723428262732 13.408709955240631 135.64022514797455 C 0.0 **** -0.24
30582 H 152.58888870141817 12.45897331052354 136.16367531657306 H 0.0 **** 0.06
30583 H 152.0518868111658 14.1487438271241 136.32118424435865 H 0.0 **** 0.06
30584 H 151.80271448853284 13.274104025040344 134.79064418088078 H 0.0 **** 0.06
30585 H 153.44472320653352 13.750100288068474 135.2857738670893 H 0.0 **** 0.06
30586 C 8.286752627155579 91.15185186822873 17.46899874476037 C 0.0 **** -0.24
30587 H 7.2155408499542375 91.3164687039365 17.587995896845328 H 0.0 **** 0.06
30588 H 8.570376061958655 90.22726231262595 17.97206294471586 H 0.0 **** 0.06
30589 H 8.83290695321935 91.98636690815624 17.906901413242608 H 0.0 **** 0.06
30590 H 8.527312735130579 91.07675339280252 16.408071906191267 H 0.0 **** 0.06
30591 C 55.47088341613329 27.322063050472025 39.05841517823508 C 0.0 **** -0.24
30592 H 54.83989990467893 27.132843170971228 38.19074571378192 H 0.0 **** 0.06
30593 H 55.25793067152489 28.316673140926184 39.45156858582163 H 0.0 **** 0.06
30594 H 56.5195946131102 27.264409986066084 38.76459267912364 H 0.0 **** 0.06
30595 H 55.267169691915626 26.576946440534357 39.82667139385978 H 0.0 **** 0.06
30596 C 0.17500376380138505 181.54031787624163 181.72665441131954 C 0.0 **** -0.24
30597 H 0.5725944807698511 181.9267319309458 182.66496804571136 H 0.0 **** 0.06
30598 H 0.04255282083721568 182.36195519852 181.02266538904718 H 0.0 **** 0.06
30599 H -0.7857480582165408 181.05997389695406 181.91056001057134 H 0.0 **** 0.06
30600 H 0.8713101000269603 180.8129959990635 181.3095944055042 H 0.0 **** 0.06
30601 C 75.34870046842845 178.48517867299756 162.7569034030509 C 0.0 **** -0.24
30602 H 74.36493534483844 178.83290129060856 163.07193807081046 H 0.0 **** 0.06
30603 H 75.67656189667794 179.0578074155355 161.88947854556892 H 0.0 **** 0.06
30604 H 75.2933626729285 177.42796735626231 162.4953681944689 H 0.0 **** 0.06
30605 H 76.06027904226666 178.62042135462613 163.57134924502503 H 0.0 **** 0.06
30606 C 183.2019602631985 144.0312956613512 183.7629686107784 C 0.0 **** -0.24
30607 H 184.14982791713965 144.1406515765344 184.28997608488612 H 0.0 **** 0.06
30608 H 183.19160083815825 144.68930204210497 182.89452347739964 H 0.0 **** 0.06
30609 H 182.3825985839855 144.2951956367554 184.43095506611155 H 0.0 **** 0.06
30610 H 183.08553792507348 142.99720528405163 183.43659054537608 H 0.0 **** 0.06
30611 C 116.54853847094603 186.97037811551127 30.856412091331748 C 0.0 **** -0.24
30612 H 115.74181285713232 186.51674129635703 31.431097288386127 H 0.0 **** 0.06
30613 H 116.21299975903818 187.14423207646024 29.8339624554867 H 0.0 **** 0.06
30614 H 117.40893909023288 186.3010958635726 30.84748301819215 H 0.0 **** 0.06
30615 H 116.83118955179185 187.91884206538225 31.312968966957158 H 0.0 **** 0.06
30616 C 51.67624887272278 122.66799630797217 179.22000705874333 C 0.0 **** -0.24
30617 H 50.59010041329353 122.75744780784152 179.19727737568584 H 0.0 **** 0.06
30618 H 52.097240349637474 123.49626514926592 179.78869990587896 H 0.0 **** 0.06
30619 H 52.06384330706412 122.69041363470507 178.20137085986897 H 0.0 **** 0.06
30620 H 51.95182405387688 121.72480064333925 179.69184383345996 H 0.0 **** 0.06
30621 C 97.63169410566479 155.81661634184337 121.3482761850579 C 0.0 **** -0.24
30622 H 96.69628068092106 155.49218968088607 120.89457065774351 H 0.0 **** 0.06
30623 H 97.90427222529468 156.7978991663097 120.95929048021307 H 0.0 **** 0.06
30624 H 98.41823995566716 155.099765842737 121.11023061436785 H 0.0 **** 0.06
30625 H 97.51040530451633 155.87510163015236 122.42993933994063 H 0.0 **** 0.06
30626 C 68.8003720767793 140.20733656035023 102.40979246164298 C 0.0 **** -0.24
30627 H 69.5314148410767 139.7382186602842 103.06829421207186 H 0.0 **** 0.06
30628 H 68.0038084877367 140.65089363063004 103.0081796964289 H 0.0 **** 0.06
30629 H 68.37841861062495 139.45580421555093 101.74206789087015 H 0.0 **** 0.06
30630 H 69.28849863411273 140.98415453993942 101.82133433172572 H 0.0 **** 0.06
30631 C 1.2406214197176268 122.01470030557675 164.25018894225826 C 0.0 **** -0.24
30632 H 1.3653459482274855 120.96952823749217 164.53606628700095 H 0.0 **** 0.06
30633 H 2.215936345731052 122.44772310181617 164.02620511924147 H 0.0 **** 0.06
30634 H 0.7791368767567519 122.56337116093982 165.07054189514128 H 0.0 **** 0.06
30635 H 0.6037586221290496 122.07595657440015 163.36749639252594 H 0.0 **** 0.06
30636 C 108.58689552087213 182.91323130721617 16.567053381571355 C 0.0 **** -0.24
30637 H 108.18074560248004 182.45688999062753 15.664343279351556 H 0.0 **** 0.06
30638 H 107.77585014112236 183.35833414596166 17.144210688670455 H 0.0 **** 0.06
30639 H 109.3035491360474 183.68706697169165 16.29059423702239 H 0.0 **** 0.06
30640 H 109.08657327563816 182.15258624653 17.165992352808146 H 0.0 **** 0.06
30641 C 145.14936085069434 154.77773190530291 155.72840406688795 C 0.0 **** -0.24
30642 H 145.11931082959887 154.1422207216878 154.84244794578908 H 0.0 **** 0.06
30643 H 146.13676102171345 154.7155984854318 156.18520053069744 H 0.0 **** 0.06
30644 H 144.3969510776045 154.4427092150109 156.4411697898245 H 0.0 **** 0.06
30645 H 144.94514357350315 155.80902072971293 155.44170329471035 H 0.0 **** 0.06
30646 C 48.214358853550095 13.494525203122784 57.2590011118067 C 0.0 **** -0.24
30647 H 49.10554619912682 14.10109131174017 57.098366900620135 H 0.0 **** 0.06
30648 H 48.31572016544493 12.938966454911998 58.1916441613796 H 0.0 **** 0.06
30649 H 48.09637702936334 12.796475274093844 56.430747981112745 H 0.0 **** 0.06
30650 H 47.339466966690196 14.142930376570334 57.31505126113291 H 0.0 **** 0.06
30651 C 32.60112162048661 18.581708352384 86.31321067760888 C 0.0 **** -0.24
30652 H 32.93028991440025 17.885554842873944 87.08444164224906 H 0.0 **** 0.06
30653 H 32.80287146695784 18.157613685655406 85.32947524590153 H 0.0 **** 0.06
30654 H 33.13895375926161 19.52319331098647 86.42077148196847 H 0.0 **** 0.06
30655 H 31.530417426564213 18.7606154241912 86.42019436384888 H 0.0 **** 0.06
30656 C 5.725595040356382 171.59106372982774 0.8060330914573797 C 0.0 **** -0.24
30657 H 5.6582674747016455 172.17010812248404 1.7270506116460353 H 0.0 **** 0.06
30658 H 5.024871263543183 170.7568927180751 0.8495257118220607 H 0.0 **** 0.06
30659 H 6.740007749598 171.20816146634553 0.691842868942345 H 0.0 **** 0.06
30660 H 5.479711246841845 172.22863950334332 -0.04268474018847712 H 0.0 **** 0.06
30661 C 87.91552980832154 180.05123568480718 70.36720544536405 C 0.0 **** -0.24
30662 H 88.70148263064658 180.80268106658312 70.44147978439156 H 0.0 **** 0.06
30663 H 88.2213268935734 179.1528611083097 70.90539685320358 H 0.0 **** 0.06
30664 H 87.74326310188303 179.80714675339905 69.3197970153718 H 0.0 **** 0.06
30665 H 86.99670407860708 180.4416065836468 70.80533388835876 H 0.0 **** 0.06
30666 C 144.63708255635802 45.3251884282772 121.67395296730851 C 0.0 **** -0.24
30667 H 145.15595334227766 45.208963458386464 122.62541318417038 H 0.0 **** 0.06
30668 H 144.79667498730234 44.43691879032616 121.06223162434009 H 0.0 **** 0.06
30669 H 145.0246229223497 46.20040927171247 121.15311939644337 H 0.0 **** 0.06
30670 H 143.5698856405078 45.45297683445443 121.8562180383137 H 0.0 **** 0.06
30671 C 70.32591657952702 91.33807625229366 8.267094018693541 C 0.0 **** -0.24
30672 H 70.40404065494391 90.72122857231219 9.16209527048332 H 0.0 **** 0.06
30673 H 70.80329082187924 90.8260922362783 7.430820194056196 H 0.0 **** 0.06
30674 H 70.8224881484785 92.29353645496303 8.439721322399805 H 0.0 **** 0.06
30675 H 69.27512765650329 91.51104150588182 8.036179906167519 H 0.0 **** 0.06
30676 C 128.17881100993154 32.80706090772517 150.5891759608832 C 0.0 **** -0.24
30677 H 127.11363679654886 32.981527857515175 150.7447808633507 H 0.0 **** 0.06
30678 H 128.31658370100118 31.87940412133287 150.0334725691209 H 0.0 **** 0.06
30679 H 128.67797610683004 32.72966495118527 151.5542245187821 H 0.0 **** 0.06
30680 H 128.60437469777295 33.63630616217435 150.0239817111411 H 0.0 **** 0.06
30681 C 73.57973429581386 99.17697098438089 170.26061589834376 C 0.0 **** -0.24
30682 H 73.58016516059183 99.87492483302816 171.09809361782968 H 0.0 **** 0.06
30683 H 74.60633248800315 98.89931832149941 170.01898423535306 H 0.0 **** 0.06
30684 H 73.11707637039547 99.65039035156053 169.39391095647628 H 0.0 **** 0.06
30685 H 73.01555005645912 98.28451241585924 170.53208511957072 H 0.0 **** 0.06
30686 C 108.98008613152749 165.59223998222055 95.39184625511945 C 0.0 **** -0.24
30687 H 109.07644853717068 166.67177969881774 95.50735369176795 H 0.0 **** 0.06
30688 H 108.02507814415253 165.2660871059302 95.80611641994844 H 0.0 **** 0.06
30689 H 109.79388220252642 165.09656276139867 95.92134765727073 H 0.0 **** 0.06
30690 H 109.0246513071992 165.33503317045796 94.33420016386347 H 0.0 **** 0.06
30691 C 44.960626283655444 29.056722999172706 190.26813858128014 C 0.0 **** -0.24
30692 H 44.85795253501237 28.046687588049053 190.66576436950277 H 0.0 **** 0.06
30693 H 44.406789079807766 29.135762403529355 189.33249131154193 H 0.0 **** 0.06
30694 H 46.01394636643363 29.26904676727176 190.08596806925385 H 0.0 **** 0.06
30695 H 44.56419318715865 29.772106306015274 190.9881262128432 H 0.0 **** 0.06
30696 C 119.49163255196834 137.25450760160427 165.36984721896 C 0.0 **** -0.24
30697 H 119.06134619534441 136.2528527503564 165.34213590507596 H 0.0 **** 0.06
30698 H 120.57789065794725 137.18518117123247 165.31592276946512 H 0.0 **** 0.06
30699 H 119.20380682956738 137.74763679215522 166.29758350007222 H 0.0 **** 0.06
30700 H 119.12088450349279 137.83121754254492 164.5220363752716 H 0.0 **** 0.06
30701 C 49.62399540859417 168.11539719863111 137.7323970916488 C 0.0 **** -0.24
30702 H 50.29635810566913 168.76073583853747 137.16611434451573 H 0.0 **** 0.06
30703 H 48.64599989679613 168.10163216166714 137.25273162944836 H 0.0 **** 0.06
30704 H 49.52650031974713 168.49735180590216 138.7487277822884 H 0.0 **** 0.06
30705 H 50.030522280567936 167.10444683524173 137.76111899309086 H 0.0 **** 0.06
30706 C 175.6059152732523 170.56020403779902 17.16028831365675 C 0.0 **** -0.24
30707 H 176.2207220156808 169.715924885212 16.849519833089005 H 0.0 **** 0.06
30708 H 174.63970461060484 170.50906779403522 16.65732534788536 H 0.0 **** 0.06
30709 H 176.1059281348475 171.49150662346008 16.89272087841438 H 0.0 **** 0.06
30710 H 175.45715377715638 170.52418277293273 18.239146113407713 H 0.0 **** 0.06
30711 C 144.24344571579138 71.6813547117353 59.63815441389609 C 0.0 **** -0.24
30712 H 144.69914796549006 70.69107481285498 59.63517637737834 H 0.0 **** 0.06
30713 H 145.0218813913849 72.43850703354364 59.530935013374304 H 0.0 **** 0.06
30714 H 143.7141011947507 71.83540402500365 60.57808412104548 H 0.0 **** 0.06
30715 H 143.54231232214988 71.76119270871718 58.808256522331206 H 0.0 **** 0.06
30716 C 88.33393096496161 1.8061205424855729 35.173281969387574 C 0.0 **** -0.24
30717 H 89.04903995827468 2.130691287977484 35.92836382897255 H 0.0 **** 0.06
30718 H 87.33888447875364 1.7520160739553248 35.615600736596946 H 0.0 **** 0.06
30719 H 88.6208195371238 0.8231850479012905 34.799808490160046 H 0.0 **** 0.06
30720 H 88.32753569009591 2.520141010192617 34.34882118384172 H 0.0 **** 0.06
30721 C 43.44725106528935 87.49930848532614 130.21126514526472 C 0.0 **** -0.24
30722 H 44.00345508349599 86.60396091776693 130.49160875258687 H 0.0 **** 0.06
30723 H 42.41833163861634 87.41064760616894 130.55948165481303 H 0.0 **** 0.06
30724 H 43.45633723210682 87.60636895855492 129.12636091497006 H 0.0 **** 0.06
30725 H 43.912540683430166 88.37339754098332 130.66734472791876 H 0.0 **** 0.06
30726 C 161.3527202811992 90.3450972070656 61.57848549012553 C 0.0 **** -0.24
30727 H 160.89383725788235 91.27171220782364 61.2350751344614 H 0.0 **** 0.06
30728 H 162.43655050371527 90.41553878780152 61.475292649872955 H 0.0 **** 0.06
30729 H 160.98416958975136 89.51283045305988 60.979267575993276 H 0.0 **** 0.06
30730 H 161.0975973980062 90.17932338797536 62.62494668287371 H 0.0 **** 0.06
30731 C 66.43465151894624 179.1784586951623 88.1295520445725 C 0.0 **** -0.24
30732 H 66.53953756439385 180.26360427269486 88.16876579360246 H 0.0 **** 0.06
30733 H 67.35945010422122 178.73765233330334 87.75705638692375 H 0.0 **** 0.06
30734 H 65.61177283531063 178.91733973723947 87.46356160886518 H 0.0 **** 0.06
30735 H 66.22761034091248 178.79822828270008 89.12982723869789 H 0.0 **** 0.06
30736 C 92.39214671247083 90.69350192390039 196.92171437488088 C 0.0 **** -0.24
30737 H 92.19616038186271 90.59110091762895 195.85483197576227 H 0.0 **** 0.06
30738 H 91.92757519402053 89.8656790655468 197.45871933929214 H 0.0 **** 0.06
30739 H 91.97817259383564 91.6364348139798 197.27806906183426 H 0.0 **** 0.06
30740 H 93.46890637724528 90.68080668139561 197.09504403242187 H 0.0 **** 0.06
30741 C 47.118738846203456 82.90752810817003 150.89881562766183 C 0.0 **** -0.24
30742 H 47.76663963152406 82.58853263250816 151.71586407348883 H 0.0 **** 0.06
30743 H 46.381143562445715 82.13030158478475 150.6962796217746 H 0.0 **** 0.06
30744 H 47.71950423745541 83.08007955203547 150.00562772226627 H 0.0 **** 0.06
30745 H 46.609247508138196 83.82978203970794 151.1781969913599 H 0.0 **** 0.06
30746 C 28.01951701536491 168.40805051160118 136.74627813361573 C 0.0 **** -0.24
30747 H 28.395314771700427 169.18889366132214 136.08368116359688 H 0.0 **** 0.06
30748 H 26.959265556831596 168.5742154102356 136.93688441073976 H 0.0 **** 0.06
30749 H 28.567390429980136 168.43692054239696 137.6881087574271 H 0.0 **** 0.06
30750 H 28.15685061959296 167.43534561702023 136.27460415898395 H 0.0 **** 0.06
30751 C 77.61907254700795 167.16300899964637 59.71359673774208 C 0.0 **** -0.24
30752 H 77.46564038963253 166.12127841406928 59.43227550176755 H 0.0 **** 0.06
30753 H 77.09444477052548 167.8104856633823 59.01004902983121 H 0.0 **** 0.06
30754 H 78.68450995400687 167.39182755819468 59.692791016764986 H 0.0 **** 0.06
30755 H 77.23214445960163 167.32906902283352 60.718632752391386 H 0.0 **** 0.06
30756 C 3.2645513315016785 66.11385045022891 196.97963089399593 C 0.0 **** -0.24
30757 H 2.190510822436238 65.97065998976677 196.8568457900733 H 0.0 **** 0.06
30758 H 3.7472566955118793 66.09852066582579 196.00337674015321 H 0.0 **** 0.06
30759 H 3.668160688741011 65.31162670789016 197.59775567574422 H 0.0 **** 0.06
30760 H 3.4495148210899345 67.07291067671633 197.46242551920508 H 0.0 **** 0.06
30761 C 31.552039583266577 131.6291426335222 34.758940452302284 C 0.0 **** -0.24
30762 H 30.554914084156223 131.86097009523561 35.1304648857369 H 0.0 **** 0.06
30763 H 31.63300627009437 131.94075808821282 33.71682965209155 H 0.0 **** 0.06
30764 H 31.72560952764269 130.55526139791556 34.831004715524415 H 0.0 **** 0.06
30765 H 32.29528901882031 132.1579927775061 35.35500460052546 H 0.0 **** 0.06
30766 C 130.4236010776415 59.3792762426329 56.61410388031419 C 0.0 **** -0.24
30767 H 130.6634844547148 58.48646438606258 57.191250853810004 H 0.0 **** 0.06
30768 H 129.52341116970163 59.84213833310898 57.01865733821694 H 0.0 **** 0.06
30769 H 130.2549107294928 59.10362354994612 55.57268712369131 H 0.0 **** 0.06
30770 H 131.25385286412222 60.08369063452943 56.673702863383824 H 0.0 **** 0.06
30771 C 18.020738467431713 89.06404348175568 101.01811428340511 C 0.0 **** -0.24
30772 H 17.351965322118204 88.35941051589725 100.52257258754372 H 0.0 **** 0.06
30773 H 17.504056648640272 89.52215882379619 101.86103889309942 H 0.0 **** 0.06
30774 H 18.32111054850826 89.8380225386079 100.31155945672174 H 0.0 **** 0.06
30775 H 18.90418551504243 88.53570745472052 101.37603750257625 H 0.0 **** 0.06
30776 C 146.9205470924578 90.12677332008047 33.34902224640388 C 0.0 **** -0.24
30777 H 146.9099130921982 91.1658224154607 33.676243195950605 H 0.0 **** 0.06
30778 H 146.46622707255185 89.49970972858671 34.11816028394307 H 0.0 **** 0.06
30779 H 147.9494743510148 89.80835518099263 33.18212927467917 H 0.0 **** 0.06
30780 H 146.35627457452279 90.03125548457609 32.4218159412745 H 0.0 **** 0.06
30781 C 165.89826331076029 166.4801663876518 146.4444579036854 C 0.0 **** -0.24
30782 H 165.45069948538196 166.665582957784 147.42140315391887 H 0.0 **** 0.06
30783 H 166.08006111605982 167.43031009476155 145.94242586195932 H 0.0 **** 0.06
30784 H 165.21998058411356 165.87521273344095 145.8438654694643 H 0.0 **** 0.06
30785 H 166.84183466967625 165.95002809572418 146.57227087608968 H 0.0 **** 0.06
30786 C 48.64592837441084 161.69036180489456 176.093212326004 C 0.0 **** -0.24
30787 H 47.8116970739824 161.52892269052157 176.7752088149378 H 0.0 **** 0.06
30788 H 49.33446547388685 162.41526582491778 176.52751004473538 H 0.0 **** 0.06
30789 H 48.27094303789622 162.06955791173317 175.1432602406772 H 0.0 **** 0.06
30790 H 49.16733163341158 160.74706492044453 175.92790554767805 H 0.0 **** 0.06
30791 C 40.76335451662493 85.60117127270996 94.37563848993489 C 0.0 **** -0.24
30792 H 41.44678971729333 85.25735407959786 93.59915297869298 H 0.0 **** 0.06
30793 H 40.2968481149306 86.53483335772773 94.059128456265 H 0.0 **** 0.06
30794 H 41.316251617526916 85.76577843758423 95.2992205975678 H 0.0 **** 0.06
30795 H 39.99338077124504 84.8481561509164 94.54160030988473 H 0.0 **** 0.06
30796 C 164.79777559718553 3.872638642869589 10.015607324641714 C 0.0 **** -0.24
30797 H 163.99617612766002 3.747953803786146 9.287193516081167 H 0.0 **** 0.06
30798 H 165.75329936826571 3.9369936465579656 9.495066798524896 H 0.0 **** 0.06
30799 H 164.80883069405937 3.0192380491392043 10.693397769818858 H 0.0 **** 0.06
30800 H 164.6309644221965 4.787423421806864 10.584891556183386 H 0.0 **** 0.06
30801 C 26.169415804071562 5.3156728237099315 34.9500136767241 C 0.0 **** -0.24
30802 H 26.903784986770304 4.538051309292442 35.160350000300184 H 0.0 **** 0.06
30803 H 25.311943318157688 4.877044352602283 34.43919306912312 H 0.0 **** 0.06
30804 H 26.620340808272402 6.079041765035569 34.315226151488446 H 0.0 **** 0.06
30805 H 25.84282387544239 5.768311944180063 35.88594060131308 H 0.0 **** 0.06
30806 C 96.42493168442053 67.84330397287022 28.488782586098353 C 0.0 **** -0.24
30807 H 96.19035085473945 68.45271336701609 29.36081164512143 H 0.0 **** 0.06
30808 H 95.99412176721125 66.84930466904939 28.614936907456993 H 0.0 **** 0.06
30809 H 97.50655080404329 67.75904310962073 28.385381133248515 H 0.0 **** 0.06
30810 H 96.008594731138 68.30942137476177 27.596349525118427 H 0.0 **** 0.06
30811 C 35.74568446125528 122.58493865538594 146.0093565787758 C 0.0 **** -0.24
30812 H 35.7510036371594 121.55165173469123 145.66160014109266 H 0.0 **** 0.06
30813 H 36.06018261894816 122.61654521971764 147.0529051562342 H 0.0 **** 0.06
30814 H 34.73949530477347 122.99249661452063 145.9202917821293 H 0.0 **** 0.06
30815 H 36.43284914470301 123.17507284773455 145.40419958741768 H 0.0 **** 0.06
30816 C 110.9347243830336 79.82883648058129 129.53708103403605 C 0.0 **** -0.24
30817 H 111.22300143988602 80.88085554944433 129.5290848667966 H 0.0 **** 0.06
30818 H 110.5106657801301 79.57618663276861 130.5087630972736 H 0.0 **** 0.06
30819 H 111.81400220538845 79.2110910234639 129.35188717928065 H 0.0 **** 0.06
30820 H 110.19431431715813 79.64903416611662 128.7581916163416 H 0.0 **** 0.06
30821 C 22.595579385616716 79.527780996014 40.031647258113765 C 0.0 **** -0.24
30822 H 23.556882384325476 80.03134468640852 40.135208077263144 H 0.0 **** 0.06
30823 H 22.505211463417183 79.12054773117742 39.02397150799595 H 0.0 **** 0.06
30824 H 21.790743956569756 80.24124083954428 40.20844845972158 H 0.0 **** 0.06
30825 H 22.529414599083978 78.71853878446564 40.75812707413874 H 0.0 **** 0.06
30826 C 16.769096527556712 56.973388296154326 99.65825002849704 C 0.0 **** -0.24
30827 H 16.565636318382246 57.46717386226118 98.70813717377905 H 0.0 **** 0.06
30828 H 15.861752369039323 56.96357014985409 100.26350856750912 H 0.0 **** 0.06
30829 H 17.55359892482079 57.51415748789657 100.18802768161265 H 0.0 **** 0.06
30830 H 17.094313918288435 55.949382304160906 99.47278824407869 H 0.0 **** 0.06
30831 C 51.43769156750474 172.76156310419915 25.431858005812543 C 0.0 **** -0.24
30832 H 51.43497998131829 173.7574525993219 25.876065688344113 H 0.0 **** 0.06
30833 H 51.89190315363294 172.0547041744196 26.12603879291747 H 0.0 **** 0.06
30834 H 52.01075496459286 172.77994760600546 24.504743105044923 H 0.0 **** 0.06
30835 H 50.41322948351625 172.4559724859877 25.21895310269221 H 0.0 **** 0.06
30836 C 187.66601954272227 22.13205824230863 42.427915714595656 C 0.0 **** -0.24
30837 H 187.11974551493472 21.62029515649988 41.63494097664562 H 0.0 **** 0.06
30838 H 188.66243346300308 22.394570145643286 42.07009799727905 H 0.0 **** 0.06
30839 H 187.75102858993935 21.474612295600195 43.292703523521425 H 0.0 **** 0.06
30840 H 187.13069646506605 23.03786891903148 42.710289358230966 H 0.0 **** 0.06
30841 C 37.564671967706246 168.51510192394719 32.89498308851958 C 0.0 **** -0.24
30842 H 38.21153665363933 168.95272679104824 33.65563165750024 H 0.0 **** 0.06
30843 H 37.88232727650416 167.49181167458724 32.693782041056664 H 0.0 **** 0.06
30844 H 37.63238289345247 169.10302218395697 31.979760342042226 H 0.0 **** 0.06
30845 H 36.534803659569036 168.51349249763226 33.25079812648818 H 0.0 **** 0.06
30846 C 107.84261511018715 177.75295060110537 148.11690610466005 C 0.0 **** -0.24
30847 H 107.77424728027182 177.0769241240544 147.26433602869795 H 0.0 **** 0.06
30848 H 108.05740263012319 177.17855830128235 149.01885705752298 H 0.0 **** 0.06
30849 H 106.89701694256937 178.2801044272989 148.23825107777725 H 0.0 **** 0.06
30850 H 108.64153697819319 178.47384763745174 147.94560818565606 H 0.0 **** 0.06
30851 C 144.8001754210578 179.460866321965 42.794016854083225 C 0.0 **** -0.24
30852 H 144.92858545231118 179.30046198259362 43.86445694732561 H 0.0 **** 0.06
30853 H 144.58244065932575 180.512329703838 42.607844883755234 H 0.0 **** 0.06
30854 H 143.9744699479427 178.84914112452387 42.431533169680336 H 0.0 **** 0.06
30855 H 145.71603582688735 179.1803935147385 42.27234891735566 H 0.0 **** 0.06
30856 C 63.60908960337946 75.0796697782445 29.175995385216368 C 0.0 **** -0.24
30857 H 63.66508225590634 74.09915621359649 29.64929092125419 H 0.0 **** 0.06
30858 H 64.07863064224999 75.0369264392952 28.193639092820007 H 0.0 **** 0.06
30859 H 64.12734524457792 75.81192971056197 29.79576403690254 H 0.0 **** 0.06
30860 H 62.564081841207766 75.37143552387836 29.067721537607213 H 0.0 **** 0.06
30861 C 40.6889991925988 198.62065786349217 9.896415007164023 C 0.0 **** -0.24
30862 H 41.452947969485464 199.12208172401824 10.491333555805937 H 0.0 **** 0.06
30863 H 40.47233397019936 197.64445272162152 10.331523510081183 H 0.0 **** 0.06
30864 H 41.04949081159074 198.49305468179642 8.876229298822189 H 0.0 **** 0.06
30865 H 39.781165423044555 199.22478010554133 9.888299010380663 H 0.0 **** 0.06
30866 C 67.77162050007013 197.37330297436682 134.86592164559326 C 0.0 **** -0.24
30867 H 67.64513575583356 198.25940336149682 135.488661892135 H 0.0 **** 0.06
30868 H 67.1318403378317 197.453201420163 133.9866416671135 H 0.0 **** 0.06
30869 H 67.49617430190978 196.4864798112501 135.43727072098878 H 0.0 **** 0.06
30870 H 68.81264043730522 197.29491896562567 134.5530860469171 H 0.0 **** 0.06
30871 C 6.129078215963318 71.4974230198091 126.72558578899921 C 0.0 **** -0.24
30872 H 6.684208365176744 70.67966037856989 127.1857178066848 H 0.0 **** 0.06
30873 H 5.451605109119839 71.93432767998068 127.45980660576717 H 0.0 **** 0.06
30874 H 5.553580142667158 71.11683673368688 125.88210507443353 H 0.0 **** 0.06
30875 H 6.826268580777821 72.25837437118324 126.37653952619121 H 0.0 **** 0.06
30876 C 111.0953682167281 156.98207058867376 119.69785985485953 C 0.0 **** -0.24
30877 H 110.10953303580482 156.92239455121742 120.15926472457227 H 0.0 **** 0.06
30878 H 111.14267209915158 156.293980689662 118.85444400647987 H 0.0 **** 0.06
30879 H 111.85538096977555 156.7128062544104 120.43138082758082 H 0.0 **** 0.06
30880 H 111.27138311403934 157.99961320048936 119.34846397773276 H 0.0 **** 0.06
30881 C 119.75173390457041 153.96079260965638 118.96745948042806 C 0.0 **** -0.24
30882 H 118.82843291247332 154.50639096876947 118.77366478862979 H 0.0 **** 0.06
30883 H 119.88312382647484 153.1891677153208 118.20800018444126 H 0.0 **** 0.06
30884 H 119.69931243290443 153.4966263274746 119.9518929809515 H 0.0 **** 0.06
30885 H 120.59510561206116 154.65032653955475 118.93547827709767 H 0.0 **** 0.06
30886 C 166.7908044273099 129.66484597850973 197.50236650530306 C 0.0 **** -0.24
30887 H 167.4315108607405 129.5184769339698 198.37095502350488 H 0.0 **** 0.06
30888 H 165.7673670764412 129.38716426003813 197.7537517201999 H 0.0 **** 0.06
30889 H 167.14441812156264 129.04196399425115 196.68055991157595 H 0.0 **** 0.06
30890 H 166.81968200189388 130.71283287851716 197.2020013076395 H 0.0 **** 0.06
30891 C 186.09309273318905 87.92961799330953 2.468586363058762 C 0.0 **** -0.24
30892 H 185.6354083662619 87.81130075858067 1.48655035072332 H 0.0 **** 0.06
30893 H 186.73797786281213 88.80836081839789 2.465440141772774 H 0.0 **** 0.06
30894 H 186.6846346918772 87.04443990993724 2.7026153291351136 H 0.0 **** 0.06
30895 H 185.31270172487075 88.0541798644069 3.2202364991161687 H 0.0 **** 0.06
30896 C 139.3759248151691 49.39722303630424 97.5774971884432 C 0.0 **** -0.24
30897 H 138.621329780252 49.971055677577084 97.03935954854455 H 0.0 **** 0.06
30898 H 140.21150337097674 50.04883183009565 97.83567187383017 H 0.0 **** 0.06
30899 H 139.7315552437278 48.58298506350741 96.94603285337178 H 0.0 **** 0.06
30900 H 138.9394107134089 48.98707448535731 98.48798786936806 H 0.0 **** 0.06
30901 C 23.563642435402556 113.0159081772897 92.33318818182426 C 0.0 **** -0.24
30902 H 22.967377965186586 113.70998178635892 92.92386842305135 H 0.0 **** 0.06
30903 H 23.83471914597675 112.15630416465416 92.9463089247935 H 0.0 **** 0.06
30904 H 24.469426037302384 113.51722050677171 91.98953758160027 H 0.0 **** 0.06
30905 H 22.985288900002104 112.68095581336016 91.4725048658037 H 0.0 **** 0.06
30906 C 83.08690808724538 80.69304464467734 88.92434937638527 C 0.0 **** -0.24
30907 H 82.56411875292159 80.18841818535316 89.73732117639312 H 0.0 **** 0.06
30908 H 84.14487947827021 80.43310073735984 88.95723371898524 H 0.0 **** 0.06
30909 H 82.97311475166609 81.77215862844866 89.03481567149288 H 0.0 **** 0.06
30910 H 82.66356838922184 80.37960275614114 87.97047236726632 H 0.0 **** 0.06
30911 C 137.68415959143852 59.28037913420383 35.7342416497126 C 0.0 **** -0.24
30912 H 138.35331187922228 59.66825485356645 34.96534610885857 H 0.0 **** 0.06
30913 H 138.1502825331106 59.39563689378116 36.71251038723767 H 0.0 **** 0.06
30914 H 137.48781248106883 58.225165249462805 35.54619607908927 H 0.0 **** 0.06
30915 H 136.74485461255213 59.83489334593014 35.71120090955321 H 0.0 **** 0.06
30916 C 109.62196163615687 116.31723693421611 63.754500513657874 C 0.0 **** -0.24
30917 H 108.67949782743506 116.16841869045166 63.22665034405951 H 0.0 **** 0.06
30918 H 109.57262282749275 115.82885112523212 64.72763136937172 H 0.0 **** 0.06
30919 H 109.79674330434011 117.38398510240091 63.890670898002256 H 0.0 **** 0.06
30920 H 110.43621876167015 115.88701803099701 63.171344691648684 H 0.0 **** 0.06
30921 C 71.24828702316614 109.31869765083243 46.856450596086006 C 0.0 **** -0.24
30922 H 71.09703192353635 110.22439342990603 46.26891358570347 H 0.0 **** 0.06
30923 H 71.900427701755 109.539357965747 47.702084242594594 H 0.0 **** 0.06
30924 H 71.70958824005885 108.55362988415052 46.23238395632063 H 0.0 **** 0.06
30925 H 70.28713901633961 108.95877362809432 47.222664843980596 H 0.0 **** 0.06
30926 C 12.68482858502773 123.25780536172905 44.44495585851887 C 0.0 **** -0.24
30927 H 12.480434355760963 124.31733258807307 44.290321638500245 H 0.0 **** 0.06
30928 H 11.746202718763271 122.72744234757607 44.60981722019572 H 0.0 **** 0.06
30929 H 13.329254383844955 123.1358621908434 45.3156268284221 H 0.0 **** 0.06
30930 H 13.182734488863105 122.85170666273046 43.56457398936628 H 0.0 **** 0.06
30931 C 97.75455114094683 29.107079695725034 29.507819736886006 C 0.0 **** -0.24
30932 H 97.37405313860233 29.93997855732151 30.098550153448173 H 0.0 **** 0.06
30933 H 98.25960783812647 28.397272273924983 30.164129779793143 H 0.0 **** 0.06
30934 H 98.45996050336018 29.480853249724106 28.765763377207463 H 0.0 **** 0.06
30935 H 96.9262410840013 28.610013997861756 29.00393601854711 H 0.0 **** 0.06
30936 C 29.849849475909465 31.388982457578294 21.996613122557036 C 0.0 **** -0.24
30937 H 30.832191836139984 30.93101514083952 21.88303893440046 H 0.0 **** 0.06
30938 H 29.959870101081876 32.379810523699234 22.438276914661586 H 0.0 **** 0.06
30939 H 29.233129522159814 30.767876437095083 22.64697803064199 H 0.0 **** 0.06
30940 H 29.37519326610426 31.47603877327424 21.020059320229592 H 0.0 **** 0.06
30941 C 45.69826050923473 11.990237268674818 141.1462699984877 C 0.0 **** -0.24
30942 H 45.00529698819099 12.093116072983463 140.31159570353293 H 0.0 **** 0.06
30943 H 46.04728391808828 12.976460581038708 141.45326826153718 H 0.0 **** 0.06
30944 H 46.54993729357062 11.382754391327005 140.8382750051979 H 0.0 **** 0.06
30945 H 45.191223495224904 11.50739840730946 141.98209282554092 H 0.0 **** 0.06
30946 C 92.15381334901656 116.92939038426482 37.14759897948875 C 0.0 **** -0.24
30947 H 92.75935881382526 117.34614942335986 36.34195432794314 H 0.0 **** 0.06
30948 H 91.2995248205732 117.58066288504722 37.334025736090695 H 0.0 **** 0.06
30949 H 92.75641790222062 116.8515540285631 38.052406103373414 H 0.0 **** 0.06
30950 H 91.79944399717738 115.939190765788 36.85983209944271 H 0.0 **** 0.06
30951 C 11.156055764022085 169.10910771745506 55.36447259762315 C 0.0 **** -0.24
30952 H 10.210994253969204 169.52511561549537 55.711349837123066 H 0.0 **** 0.06
30953 H 10.992186264933082 168.55410390416301 54.44111609921043 H 0.0 **** 0.06
30954 H 11.5587261493568 168.43886409497313 56.12434478700081 H 0.0 **** 0.06
30955 H 11.863060459030521 169.9182361804256 55.182277191136336 H 0.0 **** 0.06
30956 C 65.91462700838576 162.33397120220263 95.70752864899782 C 0.0 **** -0.24
30957 H 65.46906252417295 161.43780523482047 96.13951537902926 H 0.0 **** 0.06
30958 H 65.12461349673777 163.02294392433495 95.4069393199402 H 0.0 **** 0.06
30959 H 66.5090483447708 162.05886826092367 94.8362810787657 H 0.0 **** 0.06
30960 H 66.55477488265603 162.81410441867686 96.447930218885 H 0.0 **** 0.06
30961 C 23.36468414020044 42.1612317312979 127.97954164276311 C 0.0 **** -0.24
30962 H 23.689923332923172 42.01570954366855 126.9496123081399 H 0.0 **** 0.06
30963 H 24.223211801164297 42.084583900202176 128.6465664118621 H 0.0 **** 0.06
30964 H 22.632370309858374 41.39615129248537 128.240258137925 H 0.0 **** 0.06
30965 H 22.911425747080358 43.14727784352374 128.0811909177765 H 0.0 **** 0.06
30966 C 83.07911556358363 69.62636618686139 84.59268130509219 C 0.0 **** -0.24
30967 H 83.03798700661912 68.57236585731607 84.31573463962468 H 0.0 **** 0.06
30968 H 83.2650724700843 69.71318327569782 85.6633140666732 H 0.0 **** 0.06
30969 H 82.12970529857995 70.10259662003267 84.3490906796643 H 0.0 **** 0.06
30970 H 83.88316863391628 70.11539333563564 84.04247516545291 H 0.0 **** 0.06
30971 C 33.713394660699976 169.73473736195984 47.6582239969901 C 0.0 **** -0.24
30972 H 33.25668002642544 170.55117685404718 48.218988665737214 H 0.0 **** 0.06
30973 H 34.33276723007191 169.13685962938337 48.326564862214695 H 0.0 **** 0.06
30974 H 34.33121548638786 170.14602961576503 46.85897258131445 H 0.0 **** 0.06
30975 H 32.93249142391414 169.1084465937622 47.22801861616085 H 0.0 **** 0.06
30976 C 130.2505123854985 84.62441963277047 155.78787891745026 C 0.0 **** -0.24
30977 H 130.93528252246938 84.52429659366237 154.94614980150487 H 0.0 **** 0.06
30978 H 129.45951532173018 83.87940111814405 155.7041488005766 H 0.0 **** 0.06
30979 H 129.81256020179734 85.62250089681555 155.78168574192503 H 0.0 **** 0.06
30980 H 130.79676959597424 84.47277633676856 156.7195006643306 H 0.0 **** 0.06
30981 C 15.606942343255596 72.88231461986939 7.023783319852356 C 0.0 **** -0.24
30982 H 16.24871538618393 73.75099893050287 6.8787881498154775 H 0.0 **** 0.06
30983 H 15.045185148175932 72.99707833567662 7.950720115127041 H 0.0 **** 0.06
30984 H 16.219071678636652 71.98251056790652 7.078592178542749 H 0.0 **** 0.06
30985 H 14.913927593621821 72.79962187395876 6.185503422654449 H 0.0 **** 0.06
30986 C 114.06338588297308 88.68399336596013 76.73847803620887 C 0.0 **** -0.24
30987 H 114.58338625089766 87.72992725203059 76.6517996011737 H 0.0 **** 0.06
30988 H 113.48161038712402 88.8629307482895 75.83380053250637 H 0.0 **** 0.06
30989 H 114.79208745499773 89.4835545098249 76.86752319777044 H 0.0 **** 0.06
30990 H 113.39653589426257 88.65711269132731 77.60077161892983 H 0.0 **** 0.06
30991 C 54.42239021077779 81.41189167020195 94.71481857582859 C 0.0 **** -0.24
30992 H 53.815189304071396 81.54468369204534 95.61042620613304 H 0.0 **** 0.06
30993 H 53.97864614541925 80.63967634501785 94.08596693129883 H 0.0 **** 0.06
30994 H 55.43100091287806 81.11351381999879 95.00103317278382 H 0.0 **** 0.06
30995 H 54.464111607098914 82.35084393767625 94.16239513645243 H 0.0 **** 0.06
30996 C 88.93367331377209 107.4376990920762 18.92552452613353 C 0.0 **** -0.24
30997 H 88.91621346100476 106.54419413518568 18.302406798424926 H 0.0 **** 0.06
30998 H 88.72938837661229 108.31389472836267 18.310509449141875 H 0.0 **** 0.06
30999 H 89.9154331239373 107.53874323569926 19.388022564603347 H 0.0 **** 0.06
31000 H 88.1736374164505 107.35315490818402 19.702318836394113 H 0.0 **** 0.06
31001 C 65.65137000925091 51.82547277267986 79.98835466167282 C 0.0 **** -0.24
31002 H 65.04734774658601 52.63922367204793 79.58776228847273 H 0.0 **** 0.06
31003 H 65.16011242374421 50.872895340186005 79.78307202202984 H 0.0 **** 0.06
31004 H 65.76263502931664 51.95198811194362 81.0652997153399 H 0.0 **** 0.06
31005 H 66.63441439911173 51.83579133560886 79.51758089717418 H 0.0 **** 0.06
31006 C 137.21196378669165 110.76610929111465 16.529797245047178 C 0.0 **** -0.24
31007 H 137.16403314259134 110.04665554710886 17.34687841213872 H 0.0 **** 0.06
31008 H 137.9757958281949 111.51332300587916 16.747898106666753 H 0.0 **** 0.06
31009 H 136.24503507862786 111.25629629717537 16.42016040532019 H 0.0 **** 0.06
31010 H 137.4638496211571 110.2477460162103 15.604551479506142 H 0.0 **** 0.06
31011 C 117.24099147327703 155.4207431694935 22.917444625431813 C 0.0 **** -0.24
31012 H 118.28972807610097 155.57898727189905 22.668601308441737 H 0.0 **** 0.06
31013 H 116.86504895097357 154.55498564458222 22.370167858547234 H 0.0 **** 0.06
31014 H 116.66433938705512 156.30315332924212 22.64188820245613 H 0.0 **** 0.06
31015 H 117.14494973580113 155.2428771859445 23.98870433557579 H 0.0 **** 0.06
31016 C 10.799978005188969 164.1602656019008 193.45253923903857 C 0.0 **** -0.24
31017 H 10.536172763842252 164.4645526054784 194.46536098744122 H 0.0 **** 0.06
31018 H 10.35930350571843 164.8566655640849 192.73739043311323 H 0.0 **** 0.06
31019 H 10.419678889458496 163.1561420865322 193.26386958295703 H 0.0 **** 0.06
31020 H 11.884085666927604 164.16486261622322 193.34308555015016 H 0.0 **** 0.06
31021 C 147.93434674721502 166.53646143316308 81.63537521404862 C 0.0 **** -0.24
31022 H 147.00314258403708 166.81956924311336 82.12691206312368 H 0.0 **** 0.06
31023 H 148.08583620070644 167.1631131549513 80.75575866422184 H 0.0 **** 0.06
31024 H 147.88029082902688 165.49062310201307 81.33178529052304 H 0.0 **** 0.06
31025 H 148.76530210752395 166.6727155304975 82.3260232054555 H 0.0 **** 0.06
31026 C 173.62446047486162 162.39789261702012 15.755013169586903 C 0.0 **** -0.24
31027 H 173.1321141621864 162.28516756567254 14.788602348936877 H 0.0 **** 0.06
31028 H 174.703412818823 162.44526503004434 15.60881683314659 H 0.0 **** 0.06
31029 H 173.37948649073292 161.54530185001192 16.388531454284305 H 0.0 **** 0.06
31030 H 173.2802647793579 163.31524541407774 16.231441366941652 H 0.0 **** 0.06
31031 C 22.165193365366434 124.09337450075921 79.0487091161375 C 0.0 **** -0.24
31032 H 22.62778831265844 124.5957833696815 78.19908276931835 H 0.0 **** 0.06
31033 H 22.617860756946513 123.10973582542508 79.17848545103277 H 0.0 **** 0.06
31034 H 21.096448732683342 123.98092906661202 78.86603010923682 H 0.0 **** 0.06
31035 H 22.319912839469254 124.68633406588901 79.95025973910379 H 0.0 **** 0.06
31036 C 14.59916746035185 75.42059980597702 177.49139804203438 C 0.0 **** -0.24
31037 H 15.590073041456066 75.80745836542255 177.7286790175166 H 0.0 **** 0.06
31038 H 14.03236214858643 76.17976833149845 176.95096339775375 H 0.0 **** 0.06
31039 H 14.077908941611014 75.16682910517996 178.4142440004042 H 0.0 **** 0.06
31040 H 14.696442265785493 74.52919926407213 176.87120179777676 H 0.0 **** 0.06
31041 C 19.547216903340768 193.0124061735515 34.465876213898355 C 0.0 **** -0.24
31042 H 20.10897804164108 193.87497609847773 34.10527080121551 H 0.0 **** 0.06
31043 H 18.8715545581461 193.32653615538598 35.260669524142415 H 0.0 **** 0.06
31044 H 20.238935258808 192.2639959947858 34.8502296512859 H 0.0 **** 0.06
31045 H 18.969902608355653 192.5868078418062 33.643943133792035 H 0.0 **** 0.06
31046 C 46.905611032300826 115.3219841628279 85.73318624773529 C 0.0 **** -0.24
31047 H 47.53388178080117 115.61879380766894 84.8931716103354 H 0.0 **** 0.06
31048 H 46.20278147752279 114.55521514626588 85.40715008915856 H 0.0 **** 0.06
31049 H 46.355247330624195 116.18859046333873 86.09942660153757 H 0.0 **** 0.06
31050 H 47.53237198490774 114.9246673297115 86.53152309595154 H 0.0 **** 0.06
31051 C 98.08485114400955 113.32225332051269 151.86974885278033 C 0.0 **** -0.24
31052 H 97.8297633427648 113.11626734746216 152.90862259191078 H 0.0 **** 0.06
31053 H 98.38157445386256 114.36667823726415 151.76881534196974 H 0.0 **** 0.06
31054 H 97.21838637431162 113.12789595247392 151.23712043672504 H 0.0 **** 0.06
31055 H 98.90989720901948 112.67790917336515 151.56349678847943 H 0.0 **** 0.06
31056 C 193.88004533466952 0.6572750895935044 128.94108444445342 C 0.0 **** -0.24
31057 H 193.19648816462734 -0.17743055334178592 129.09328413781216 H 0.0 **** 0.06
31058 H 193.73618431576534 1.3933815020789524 129.73217928394507 H 0.0 **** 0.06
31059 H 193.6814175592024 1.1181153431134376 127.97367091264402 H 0.0 **** 0.06
31060 H 194.90805332711076 0.29360375889403656 128.96552716521134 H 0.0 **** 0.06
31061 C 181.6744132407227 64.32939886340264 6.712528777059305 C 0.0 **** -0.24
31062 H 182.3061017852701 63.49528833023952 7.021240497124097 H 0.0 **** 0.06
31063 H 180.65079449139472 63.979837589855876 6.58053165789255 H 0.0 **** 0.06
31064 H 182.044122258908 64.73686219218446 5.772130171471815 H 0.0 **** 0.06
31065 H 181.69808063971936 65.10424591168774 7.479383788158458 H 0.0 **** 0.06
31066 C 144.41077005158564 40.64752661743907 175.0985228151606 C 0.0 **** -0.24
31067 H 143.35661437704172 40.63163625201746 175.37262308982991 H 0.0 **** 0.06
31068 H 144.97989566063328 41.168393003079075 175.8692523112507 H 0.0 **** 0.06
31069 H 144.5312333112641 41.164010234915295 174.14619096099796 H 0.0 **** 0.06
31070 H 144.77753375983613 39.62429156867459 175.00587756165032 H 0.0 **** 0.06
31071 C 143.9845605382914 13.158737994567026 86.03120420577741 C 0.0 **** -0.24
31072 H 144.86761887052722 12.571547399965006 85.7794347338104 H 0.0 **** 0.06
31073 H 143.11638891454675 12.50141718754007 86.09035736648386 H 0.0 **** 0.06
31074 H 143.81898837488617 13.911976320152718 85.26177094813335 H 0.0 **** 0.06
31075 H 144.1363461197762 13.648121773954607 86.99278431993613 H 0.0 **** 0.06
31076 C 163.65429295492072 54.816516277738884 78.46708185450123 C 0.0 **** -0.24
31077 H 162.72240995226082 54.55169941111576 77.96962659691124 H 0.0 **** 0.06
31078 H 163.58610409456548 54.56465617183831 79.52578694413538 H 0.0 **** 0.06
31079 H 163.8323749769134 55.88690793487412 78.35854982924234 H 0.0 **** 0.06
31080 H 164.47784905334308 54.26349776558848 78.01461354022366 H 0.0 **** 0.06
31081 C 57.4246807709136 173.54806144384713 132.59743229228792 C 0.0 **** -0.24
31082 H 58.203057803289056 173.02741283794938 133.15460452016217 H 0.0 **** 0.06
31083 H 57.227865355439064 174.51332366927764 133.06375214691639 H 0.0 **** 0.06
31084 H 56.51317742528255 172.94954325494504 132.60048708331587 H 0.0 **** 0.06
31085 H 57.75438324019015 173.70063067236126 131.56980853224297 H 0.0 **** 0.06
31086 C 58.215171380681554 97.93414038253158 166.83186352292276 C 0.0 **** -0.24
31087 H 58.83509012593629 97.58590228822214 166.00458926291742 H 0.0 **** 0.06
31088 H 57.237522930767156 97.45313703263318 166.780443634723 H 0.0 **** 0.06
31089 H 58.09234075588374 99.01460156852917 166.76366583539595 H 0.0 **** 0.06
31090 H 58.695756814466904 97.68173046558022 167.7766145684833 H 0.0 **** 0.06
31091 C 84.47919825636421 125.03893669616008 121.31916074644664 C 0.0 **** -0.24
31092 H 84.79963655715753 124.26209078638163 120.6240424562526 H 0.0 **** 0.06
31093 H 85.19340424707934 125.8621320323447 121.2987665114151 H 0.0 **** 0.06
31094 H 84.42807974167391 124.62591679995339 122.3266209921608 H 0.0 **** 0.06
31095 H 83.49472109914146 125.4034563544586 121.02652817932511 H 0.0 **** 0.06
31096 C 90.22718453805675 143.46131998679581 19.239459265836814 C 0.0 **** -0.24
31097 H 89.92115150563916 144.37949129024085 18.738364548044217 H 0.0 **** 0.06
31098 H 90.98485060398812 142.95552600360315 18.640259566873624 H 0.0 **** 0.06
31099 H 89.36214678243584 142.80798020610757 19.359823412059455 H 0.0 **** 0.06
31100 H 90.6384284282955 143.70174783075328 20.219601901484396 H 0.0 **** 0.06
31101 C 158.4271007999343 57.75251804928135 6.8086176848308355 C 0.0 **** -0.24
31102 H 159.0123846169521 57.26650780489027 7.588510981583937 H 0.0 **** 0.06
31103 H 158.78316582896142 58.77382699542778 6.670442317220619 H 0.0 **** 0.06
31104 H 157.3769892275931 57.770860806234936 7.0994593972290545 H 0.0 **** 0.06
31105 H 158.53633148104473 57.19969488372982 5.875003786284168 H 0.0 **** 0.06
31106 C 19.333299916461726 115.62014163067803 151.40449586998676 C 0.0 **** -0.24
31107 H 18.754558453434868 116.37736818409894 151.9339427132993 H 0.0 **** 0.06
31108 H 20.302767040069682 115.50177385966339 151.88807134616275 H 0.0 **** 0.06
31109 H 19.4792826491842 115.93289918025411 150.37027758888829 H 0.0 **** 0.06
31110 H 18.79645379981946 114.67221561014574 151.42629427355894 H 0.0 **** 0.06
31111 C 62.56343679792164 96.64819344397182 124.08656999417394 C 0.0 **** -0.24
31112 H 62.42615349315291 96.35852449483633 123.04478168749029 H 0.0 **** 0.06
31113 H 63.62919308944872 96.72288119405954 124.30467310842576 H 0.0 **** 0.06
31114 H 62.11149248880548 95.89667865489074 124.73394665892948 H 0.0 **** 0.06
31115 H 62.08727976200673 97.61216654960569 124.26129828740784 H 0.0 **** 0.06
31116 C 135.5769267613515 150.2971470120903 46.58910744399941 C 0.0 **** -0.24
31117 H 136.39265111111763 150.97601646620598 46.33871225532647 H 0.0 **** 0.06
31118 H 134.68921895449944 150.87607090729927 46.84595112821745 H 0.0 **** 0.06
31119 H 135.8674066078322 149.67998692553752 47.43930305007564 H 0.0 **** 0.06
31120 H 135.35986970055797 149.65871679757612 45.733500205188136 H 0.0 **** 0.06
31121 C 172.77212651359875 179.49416997751422 125.90758119592414 C 0.0 **** -0.24
31122 H 173.65923088931507 179.54444920430296 126.53896975216605 H 0.0 **** 0.06
31123 H 173.05620547381417 179.16271864920282 124.90828350932009 H 0.0 **** 0.06
31124 H 172.3130204445735 180.48160323298453 125.84697677859467 H 0.0 **** 0.06
31125 H 172.06090083945713 178.78875191360618 126.33684576437523 H 0.0 **** 0.06
31126 C 102.03415032942627 94.01584115776825 159.50949443886603 C 0.0 **** -0.24
31127 H 101.37764069921084 94.82250261079139 159.8349173595184 H 0.0 **** 0.06
31128 H 102.22016086090423 94.1085492296342 158.43889413738094 H 0.0 **** 0.06
31129 H 101.55939480898641 93.05601704033904 159.7137701051422 H 0.0 **** 0.06
31130 H 102.97899096163343 94.07641012416326 160.04871817897083 H 0.0 **** 0.06
31131 C 172.99046084288022 70.86136236328588 111.01258909815965 C 0.0 **** -0.24
31132 H 173.5165598189312 71.40896049741232 110.23010149369372 H 0.0 **** 0.06
31133 H 172.17692485947254 70.28694887365818 110.56926750631033 H 0.0 **** 0.06
31134 H 172.58518256836427 71.56603532319363 111.73893627991026 H 0.0 **** 0.06
31135 H 173.68522466644876 70.18481221817011 111.51060397760341 H 0.0 **** 0.06
31136 C 108.83253347073003 182.3387200921693 151.56778493464327 C 0.0 **** -0.24
31137 H 109.6575753240333 182.4909965846129 152.26385497337913 H 0.0 **** 0.06
31138 H 107.93702423472996 182.8270724718707 151.95437888472048 H 0.0 **** 0.06
31139 H 108.64425288963264 181.27051568905733 151.45604650077888 H 0.0 **** 0.06
31140 H 109.08986587614254 182.76547715398362 150.59868323067903 H 0.0 **** 0.06
31141 C 182.98110641066827 106.52221857929248 166.72316202363552 C 0.0 **** -0.24
31142 H 183.7455973846279 107.22022245659343 166.38007187851937 H 0.0 **** 0.06
31143 H 183.33924058701297 105.99893306472234 167.6098315606964 H 0.0 **** 0.06
31144 H 182.7712663315837 105.79856361105794 165.934709528029 H 0.0 **** 0.06
31145 H 182.07120013965837 107.06949509578413 166.9663155586137 H 0.0 **** 0.06
31146 C 87.47026361722945 1.2744910803794482 49.901513925758366 C 0.0 **** -0.24
31147 H 87.08265505491988 2.2247606212824564 50.26989294638875 H 0.0 **** 0.06
31148 H 88.55681241321457 1.3281767782163243 49.83246868657204 H 0.0 **** 0.06
31149 H 87.05253173798499 1.0698789659372565 48.91601170315937 H 0.0 **** 0.06
31150 H 87.18820465949702 0.4767070500369286 50.58860203344548 H 0.0 **** 0.06
31151 C 157.90959801900738 136.36367679371864 138.74085055108952 C 0.0 **** -0.24
31152 H 158.99485065033159 136.46228812771886 138.71425702630722 H 0.0 **** 0.06
31153 H 157.6357634457462 135.3226143725685 138.56694723216197 H 0.0 **** 0.06
31154 H 157.46962626212144 136.98992102955975 137.964526714175 H 0.0 **** 0.06
31155 H 157.5406996407618 136.67944261450876 139.71585084796766 H 0.0 **** 0.06
31156 C 43.39331715911047 86.75555416463817 78.62373827745355 C 0.0 **** -0.24
31157 H 43.18574199375509 86.64968433713642 77.55936062215883 H 0.0 **** 0.06
31158 H 44.392354357805104 86.37398638282377 78.8384879509174 H 0.0 **** 0.06
31159 H 42.65723107388611 86.19083366194036 79.19622646017692 H 0.0 **** 0.06
31160 H 43.339901833418054 87.80808557846797 78.90100727384475 H 0.0 **** 0.06
31161 C 86.47965731806116 28.762190655306767 141.22901169099092 C 0.0 **** -0.24
31162 H 86.56316538991956 29.327994945573195 142.15635389703368 H 0.0 **** 0.06
31163 H 87.23763256714793 29.10532614439701 140.52450246391848 H 0.0 **** 0.06
31164 H 85.48905964497618 28.91200189620352 140.79999477103706 H 0.0 **** 0.06
31165 H 86.62950800892847 27.70238728122682 141.4357875778636 H 0.0 **** 0.06
31166 C 31.80937246567258 185.34649767015645 174.9395719539931 C 0.0 **** -0.24
31167 H 31.117367316954002 186.18402230988283 175.02302862921306 H 0.0 **** 0.06
31168 H 32.30890951838144 185.19204693239854 175.89657112301052 H 0.0 **** 0.06
31169 H 32.55236690061494 185.56551418504102 174.1720325476359 H 0.0 **** 0.06
31170 H 31.25907548734959 184.4458025162461 174.66668155963094 H 0.0 **** 0.06
31171 C 52.64041648271629 130.37644655973767 60.716546874522976 C 0.0 **** -0.24
31172 H 52.67933845874245 129.45240944389948 61.29318815448096 H 0.0 **** 0.06
31173 H 52.67878653234169 131.22918771090838 61.394352119270195 H 0.0 **** 0.06
31174 H 51.71386212507781 130.40800145643476 60.143966769351664 H 0.0 **** 0.06
31175 H 53.49030649646653 130.41382373580288 60.03454569459251 H 0.0 **** 0.06
31176 C 159.1764456392897 97.23745296641417 114.10020009509435 C 0.0 **** -0.24
31177 H 158.98966023069227 96.34819723200701 113.49794920211264 H 0.0 **** 0.06
31178 H 160.00831412585399 97.04806335252925 114.77844641686647 H 0.0 **** 0.06
31179 H 158.28406645711902 97.48122035856565 114.67582802583854 H 0.0 **** 0.06
31180 H 159.42566282444076 98.07314207266191 113.44501979150846 H 0.0 **** 0.06
31181 C 78.42653485323217 70.0117826277852 68.25750179494887 C 0.0 **** -0.24
31182 H 78.8062000326417 70.00582346399982 67.2359238411094 H 0.0 **** 0.06
31183 H 79.24119202500842 70.23634199815083 68.94600267695145 H 0.0 **** 0.06
31184 H 78.00778720926203 69.03408032485333 68.4953132611065 H 0.0 **** 0.06
31185 H 77.65055874825589 70.77226154957171 68.3510517842249 H 0.0 **** 0.06
31186 C 186.9971196618606 61.86243391523618 65.88148857535862 C 0.0 **** -0.24
31187 H 187.64705057569256 61.593178406535344 65.04801452493746 H 0.0 **** 0.06
31188 H 186.5455700822901 60.960701651828344 66.29568852100692 H 0.0 **** 0.06
31189 H 186.21438944074168 62.53365190284643 65.52955182840839 H 0.0 **** 0.06
31190 H 187.58507102331237 62.362058074906315 66.65266405440983 H 0.0 **** 0.06
31191 C 17.777858821735606 67.36343576800107 183.30581127687833 C 0.0 **** -0.24
31192 H 17.138990461705532 66.6342520762186 182.8067270527436 H 0.0 **** 0.06
31193 H 17.16288056152618 68.16385213549093 183.71679430975627 H 0.0 **** 0.06
31194 H 18.483463956179705 67.7791751986615 182.5861017415171 H 0.0 **** 0.06
31195 H 18.325335578793243 66.87419215554107 184.11132947480178 H 0.0 **** 0.06
31196 C 126.74803257264273 50.65512780790844 121.0299051394397 C 0.0 **** -0.24
31197 H 126.70213763006348 51.74237021090164 121.0882942061429 H 0.0 **** 0.06
31198 H 125.98438617950796 50.223779659643824 121.6782273391425 H 0.0 **** 0.06
31199 H 127.73254393797666 50.31563021170237 121.35052550544313 H 0.0 **** 0.06
31200 H 126.57228474007076 50.338482339773705 120.00104603159849 H 0.0 **** 0.06
31201 C 24.742414188485924 114.93001271954981 119.4814990646619 C 0.0 **** -0.24
31202 H 24.360505351411916 115.91215702782875 119.76140064637062 H 0.0 **** 0.06
31203 H 25.822955898070177 114.90648425108441 119.62528613783059 H 0.0 **** 0.06
31204 H 24.509197521628977 114.73501506712574 118.43487325831614 H 0.0 **** 0.06
31205 H 24.275757137108997 114.16863114472181 120.10629580810374 H 0.0 **** 0.06
31206 C 31.918006057949185 134.50260410856646 56.64303839760481 C 0.0 **** -0.24
31207 H 31.757895864275667 133.45261088910493 56.39762924417698 H 0.0 **** 0.06
31208 H 32.85222742447195 134.84205830445228 56.195416933402214 H 0.0 **** 0.06
31209 H 31.96957658541072 134.62019843206306 57.72529378835935 H 0.0 **** 0.06
31210 H 31.090639901440284 135.09671952590742 56.25247490938415 H 0.0 **** 0.06
31211 C 52.8797014010305 177.86620928707282 27.506499151327674 C 0.0 **** -0.24
31212 H 52.82323132599828 176.83072002118965 27.843949620413625 H 0.0 **** 0.06
31213 H 51.88223912709208 178.21599367738804 27.239075162713434 H 0.0 **** 0.06
31214 H 53.532650473438764 177.92976861098356 26.636698956868415 H 0.0 **** 0.06
31215 H 53.2798473491178 178.48749984489697 28.308161773638474 H 0.0 **** 0.06
31216 C 91.06730937809948 114.51781601165095 1.4690168974885083 C 0.0 **** -0.24
31217 H 91.37370234935105 115.55230930637018 1.3145285525007395 H 0.0 **** 0.06
31218 H 91.30656671375328 113.93156674710428 0.5805511091335305 H 0.0 **** 0.06
31219 H 89.99315530497836 114.48020599328072 1.6509982184018739 H 0.0 **** 0.06
31220 H 91.59619389138288 114.10643394869979 2.3279171368229683 H 0.0 **** 0.06
31221 C 14.958660377501772 109.1124741329757 136.60907702704256 C 0.0 **** -0.24
31222 H 15.070664321538047 108.04632843928064 136.80479147717634 H 0.0 **** 0.06
31223 H 15.571064730494328 109.6771593101609 137.31154640405893 H 0.0 **** 0.06
31224 H 13.91286674391069 109.39657850166017 136.7288437997115 H 0.0 **** 0.06
31225 H 15.279715895214608 109.3292024001542 135.58990289600058 H 0.0 **** 0.06
31226 C 64.15956761892573 56.00741998230933 124.92467268483097 C 0.0 **** -0.24
31227 H 65.03265781293806 56.09911664821965 124.27881750687399 H 0.0 **** 0.06
31228 H 63.263480534086966 56.274161618786934 124.36494819615226 H 0.0 **** 0.06
31229 H 64.26801661031561 56.676993312614314 125.77861945141237 H 0.0 **** 0.06
31230 H 64.07592792251017 54.97993448138914 125.27750495332137 H 0.0 **** 0.06
31231 C 98.07109993353029 81.29038358672625 94.09988755779267 C 0.0 **** -0.24
31232 H 99.10395253738346 81.52952153878823 94.35241718607475 H 0.0 **** 0.06
31233 H 97.77768452506146 80.37036108153268 94.60516140887111 H 0.0 **** 0.06
31234 H 97.98227885965943 81.15776854691438 93.02114209503571 H 0.0 **** 0.06
31235 H 97.42116620864473 82.1054108427814 94.4203816069192 H 0.0 **** 0.06
31236 C 7.8803668610133855 156.99423489942512 139.81050240758458 C 0.0 **** -0.24
31237 H 6.802610958668424 156.96224506968616 139.6505694549741 H 0.0 **** 0.06
31238 H 8.212419713428943 156.0495557910412 140.2424445247346 H 0.0 **** 0.06
31239 H 8.121686807757072 157.8104788000686 140.49178815667887 H 0.0 **** 0.06
31240 H 8.384051704758406 157.1558894838671 138.85723378565217 H 0.0 **** 0.06
31241 C 83.90374103083292 154.00928161297537 162.72034775842792 C 0.0 **** -0.24
31242 H 84.87286261953236 153.58521629549287 162.9837555066994 H 0.0 **** 0.06
31243 H 83.20122256168466 153.84285648213873 163.53740477847157 H 0.0 **** 0.06
31244 H 83.5308528742369 153.5284730574465 161.8159445080188 H 0.0 **** 0.06
31245 H 84.01091077863799 155.0800779739032 162.5462774072775 H 0.0 **** 0.06
31246 C 82.95579713875136 20.757521640483134 177.42289316305988 C 0.0 **** -0.24
31247 H 82.39354350389155 19.848883252258645 177.6350034704448 H 0.0 **** 0.06
31248 H 82.28445686476886 21.615569823329622 177.45254495484912 H 0.0 **** 0.06
31249 H 83.40707498082384 20.682522462698444 176.4324411643153 H 0.0 **** 0.06
31250 H 83.73999866212625 20.882835269419814 178.1700438606626 H 0.0 **** 0.06
31251 C 32.700093784233644 164.9977460198724 155.4576133292712 C 0.0 **** -0.24
31252 H 31.690932942795996 165.26494151046614 155.77016354114699 H 0.0 **** 0.06
31253 H 33.19867977476963 165.87701913663415 155.04794821056961 H 0.0 **** 0.06
31254 H 32.64945515701095 164.22065019076757 154.6950108889088 H 0.0 **** 0.06
31255 H 33.260935222547886 164.6279740469186 156.31602596453638 H 0.0 **** 0.06
31256 C 191.22354819189533 48.675021316389234 32.38664698522352 C 0.0 **** -0.24
31257 H 191.0744705066695 47.62200215341494 32.6278050099816 H 0.0 **** 0.06
31258 H 190.81757225066076 49.291413354430915 33.18845373446557 H 0.0 **** 0.06
31259 H 190.71351216305365 48.90852465099067 31.452752935235793 H 0.0 **** 0.06
31260 H 192.28973981655543 48.87425616068839 32.27838997478317 H 0.0 **** 0.06
31261 C 80.91892981237692 76.64375569936703 50.725812895813945 C 0.0 **** -0.24
31262 H 81.89221398397416 76.17016035781211 50.85553591846636 H 0.0 **** 0.06
31263 H 80.1618714486591 75.87763427608473 50.558539825272675 H 0.0 **** 0.06
31264 H 80.953105036978 77.31589558674807 49.86817444262054 H 0.0 **** 0.06
31265 H 80.6689966033806 77.2112145551094 51.62266491032051 H 0.0 **** 0.06
31266 C 170.042320066501 84.60447706453019 135.17730342955633 C 0.0 **** -0.24
31267 H 169.76258831425685 85.41117279502328 134.49967533880692 H 0.0 **** 0.06
31268 H 169.14285436072697 84.1405138392646 135.5805430929605 H 0.0 **** 0.06
31269 H 170.64165051946264 85.00710205542981 135.99385704467153 H 0.0 **** 0.06
31270 H 170.62373267921777 83.85916773463754 134.63386983197847 H 0.0 **** 0.06
31271 C 102.63798726740058 58.77226112936992 152.63567325560192 C 0.0 **** -0.24
31272 H 101.65562059717496 59.1478199113335 152.92171172264412 H 0.0 **** 0.06
31273 H 102.52236285186675 57.95987416491192 151.91771705081794 H 0.0 **** 0.06
31274 H 103.15784237050556 58.40378158954621 153.52040213911005 H 0.0 **** 0.06
31275 H 103.21684191435617 59.57774637260735 152.18353444127325 H 0.0 **** 0.06
31276 C 187.43618529431836 152.05544990533878 24.169273053133224 C 0.0 **** -0.24
31277 H 188.3910310002708 151.5943156328083 24.4218607496758 H 0.0 **** 0.06
31278 H 186.7622840858112 151.29668295025908 23.770519284393103 H 0.0 **** 0.06
31279 H 187.59433836822708 152.8314816524329 23.420667679638896 H 0.0 **** 0.06
31280 H 186.9970995068522 152.49692959280776 25.064581974435526 H 0.0 **** 0.06
31281 C 101.53910054834071 122.0124099401223 164.1516941565843 C 0.0 **** -0.24
31282 H 101.31394612254661 123.06240179310996 164.3404460856464 H 0.0 **** 0.06
31283 H 100.75803193395524 121.38999339917115 164.58841392200148 H 0.0 **** 0.06
31284 H 102.49994063570983 121.76057572882144 164.60188141185498 H 0.0 **** 0.06
31285 H 101.584851247557 121.83860995709281 163.07708255239072 H 0.0 **** 0.06
31286 C 106.49471442291824 58.08637475585991 142.84527440683743 C 0.0 **** -0.24
31287 H 106.7942998316235 57.18742124050311 143.3852909550846 H 0.0 **** 0.06
31288 H 106.0788205805352 57.80696117790882 141.87679360374878 H 0.0 **** 0.06
31289 H 107.36415299421344 58.72741711260733 142.69683934696218 H 0.0 **** 0.06
31290 H 105.74205231402249 58.622156812759215 143.42280708829514 H 0.0 **** 0.06
31291 C 70.97461563887379 13.496075391002606 84.6107163668346 C 0.0 **** -0.24
31292 H 70.53403967689162 12.519231041310107 84.81267092232463 H 0.0 **** 0.06
31293 H 71.82141717732478 13.37935529983357 83.93412101860514 H 0.0 **** 0.06
31294 H 71.3139322099538 13.94120623331991 85.54570752551774 H 0.0 **** 0.06
31295 H 70.22733139996409 14.143200549668371 84.1498628002762 H 0.0 **** 0.06
31296 C 50.12802586715 156.8229646313103 39.90360288713856 C 0.0 **** -0.24
31297 H 50.30565884715216 157.8902289437811 40.03496912678855 H 0.0 **** 0.06
31298 H 50.832049725154704 156.42449879675783 39.17263839960228 H 0.0 **** 0.06
31299 H 49.10947166840259 156.66535587151625 39.55144600932334 H 0.0 **** 0.06
31300 H 50.26615041701665 156.31164777972018 40.85657370555674 H 0.0 **** 0.06
31301 C 146.61139247682755 25.44047504895083 53.257926892297746 C 0.0 **** -0.24
31302 H 147.49496007173016 24.869571741777293 52.97139519275419 H 0.0 **** 0.06
31303 H 146.89309227716868 26.47715506247168 53.44220779908002 H 0.0 **** 0.06
31304 H 146.18184249658353 25.01316987306221 54.16329629494203 H 0.0 **** 0.06
31305 H 145.87715401832406 25.39975031042927 52.45315420947952 H 0.0 **** 0.06
31306 C 8.412397851711944 139.73290613093195 62.389005715512155 C 0.0 **** -0.24
31307 H 7.487665552607979 139.47751086131277 62.90655196072046 H 0.0 **** 0.06
31308 H 8.753790031006389 140.71440656385727 62.71752201069842 H 0.0 **** 0.06
31309 H 8.23431865451488 139.7502501193289 61.31420403674713 H 0.0 **** 0.06
31310 H 9.174606362111774 138.98737503773185 62.61795173905432 H 0.0 **** 0.06
31311 C 19.661279161434848 43.409263980716375 173.4981804244247 C 0.0 **** -0.24
31312 H 19.710544561983227 43.68643815670865 172.44504126730246 H 0.0 **** 0.06
31313 H 20.581710212396743 42.90113710402201 173.783251307864 H 0.0 **** 0.06
31314 H 18.81253191327602 42.743891301835134 173.65905617807985 H 0.0 **** 0.06
31315 H 19.53823211098971 44.30729457736028 174.10373236878635 H 0.0 **** 0.06
31316 C 176.7583150837955 72.91507346576165 41.40541340401904 C 0.0 **** -0.24
31317 H 177.37363134138337 73.6665010328281 40.909392010617296 H 0.0 **** 0.06
31318 H 175.7363058307702 72.97767489937725 41.028355207644495 H 0.0 **** 0.06
31319 H 176.7604181448234 73.09604463582562 42.48010763349555 H 0.0 **** 0.06
31320 H 177.16038626182407 71.92332605955585 41.20235800068198 H 0.0 **** 0.06
31321 C 27.536802546317745 143.67405035627368 25.77909256056597 C 0.0 **** -0.24
31322 H 28.427611393593892 144.1560658938267 25.377654796565906 H 0.0 **** 0.06
31323 H 27.82322277518412 142.99001593364878 26.578339742099104 H 0.0 **** 0.06
31324 H 27.035257448755075 143.11875493693128 24.986328913195052 H 0.0 **** 0.06
31325 H 26.860588790298237 144.43204909150424 26.175165241813374 H 0.0 **** 0.06
31326 C 51.78864509159166 9.855348957112028 53.30740812737508 C 0.0 **** -0.24
31327 H 50.88020592198774 10.367006068565047 53.623392196262074 H 0.0 **** 0.06
31328 H 52.29910956999436 9.448889113575206 54.18105800842227 H 0.0 **** 0.06
31329 H 52.44479568025875 10.560387120135204 52.79801706525967 H 0.0 **** 0.06
31330 H 51.52955104053177 9.043079971632011 52.62701773365325 H 0.0 **** 0.06
31331 C 117.1717903668013 76.93109344888101 77.44674068471392 C 0.0 **** -0.24
31332 H 116.7396020713185 77.6636280369 78.12899727389811 H 0.0 **** 0.06
31333 H 117.09477745547309 77.29918898368194 76.42330998997275 H 0.0 **** 0.06
31334 H 116.63228772095229 75.98825819053538 77.53614566641272 H 0.0 **** 0.06
31335 H 118.22103276900998 76.77566936226921 77.69880898479308 H 0.0 **** 0.06
31336 C 0.11250126997376242 90.7659468412844 159.74142749074178 C 0.0 **** -0.24
31337 H -0.8078160246858843 91.00360132314836 160.2753817180511 H 0.0 **** 0.06
31338 H -0.09519879583399415 90.69618113774544 158.67375286427188 H 0.0 **** 0.06
31339 H 0.5033334687456232 89.81251926478933 160.09897016473252 H 0.0 **** 0.06
31340 H 0.8479704214547681 91.54989680643689 159.91948434154241 H 0.0 **** 0.06
31341 C 147.0792724257664 110.8275317442588 139.02775341768748 C 0.0 **** -0.24
31342 H 146.1790706472457 110.43446597900845 139.49968109559603 H 0.0 **** 0.06
31343 H 146.8741594114977 111.04564419423761 137.9793573534542 H 0.0 **** 0.06
31344 H 147.87792571962464 110.08833733929393 139.09659562498314 H 0.0 **** 0.06
31345 H 147.38623077866308 111.7420128847736 139.5367215176811 H 0.0 **** 0.06
31346 C 133.87219567837096 195.6128730331691 147.9276768296718 C 0.0 **** -0.24
31347 H 133.53219852927526 196.3410846826938 148.66488402017427 H 0.0 **** 0.06
31348 H 133.113877830043 195.4986899268741 147.1536135743606 H 0.0 **** 0.06
31349 H 134.04032876367302 194.65385698570856 148.41660028526104 H 0.0 **** 0.06
31350 H 134.80247375027452 195.9595059786657 147.47790801437841 H 0.0 **** 0.06
31351 C 29.33841397226709 184.11212023619794 85.9960275767877 C 0.0 **** -0.24
31352 H 28.85556160931145 183.39477488617345 86.65966296432828 H 0.0 **** 0.06
31353 H 28.743177222683414 184.22412093231947 85.0885581354431 H 0.0 **** 0.06
31354 H 30.33418607722487 183.75332906290657 85.73578252010367 H 0.0 **** 0.06
31355 H 29.41888654380466 185.07474624913633 86.49954219963743 H 0.0 **** 0.06
31356 C 29.43863811365209 150.9604091474268 184.47071625869424 C 0.0 **** -0.24
31357 H 28.749683642118697 151.66421556806998 184.0043066440957 H 0.0 **** 0.06
31358 H 29.979486130151784 150.4150121415411 183.69685565936945 H 0.0 **** 0.06
31359 H 28.876916042367426 150.25735369647577 185.08552031152678 H 0.0 **** 0.06
31360 H 30.146755582099004 151.50527254306166 185.09444311948502 H 0.0 **** 0.06
31361 C 160.05776034411755 54.88051043201227 90.82955479949857 C 0.0 **** -0.24
31362 H 159.98694533250193 53.80940083325514 91.01988386415476 H 0.0 **** 0.06
31363 H 160.17177526918812 55.41010582938465 91.77635785889626 H 0.0 **** 0.06
31364 H 159.15163340737845 55.22170531311605 90.3284602772834 H 0.0 **** 0.06
31365 H 160.92109410948552 55.080365015859655 90.19566631120009 H 0.0 **** 0.06
31366 C 3.9435433191545073 93.14486964091762 167.55148668261052 C 0.0 **** -0.24
31367 H 4.6621629564101355 92.37978144606211 167.84659949134897 H 0.0 **** 0.06
31368 H 2.9843835574654136 92.67535962178727 167.33137400108424 H 0.0 **** 0.06
31369 H 4.307811422612403 93.66190135763964 166.66344014854866 H 0.0 **** 0.06
31370 H 3.8205014334722307 93.86035493150601 168.36408815937222 H 0.0 **** 0.06
31371 C 136.0364066448072 41.68831588698322 196.6340551540452 C 0.0 **** -0.24
31372 H 136.81689618378047 42.35802494896387 196.99758173002644 H 0.0 **** 0.06
31373 H 136.3714683831276 40.655029716603366 196.72909737055056 H 0.0 **** 0.06
31374 H 135.82869055384847 41.907900254758545 195.58627491124847 H 0.0 **** 0.06
31375 H 135.13137683942648 41.833969373802574 197.22265668832858 H 0.0 **** 0.06
31376 C 93.80647389210688 20.968174263354427 175.94901721587712 C 0.0 **** -0.24
31377 H 94.16734488492398 20.964851111720236 176.97766476047073 H 0.0 **** 0.06
31378 H 93.66680386001664 19.941522923868092 175.60937180017464 H 0.0 **** 0.06
31379 H 94.53548589940442 21.466553275380875 175.31063369465048 H 0.0 **** 0.06
31380 H 92.85635570960531 21.499746115817203 175.8993938363792 H 0.0 **** 0.06
31381 C 132.18232538257476 62.017971136869605 145.9996844430275 C 0.0 **** -0.24
31382 H 132.1701884554936 62.88564960132368 146.65876671750965 H 0.0 **** 0.06
31383 H 131.4987182455788 61.26048616766096 146.3828717110625 H 0.0 **** 0.06
31384 H 133.19152473102167 61.60839605022838 145.95665415722783 H 0.0 **** 0.06
31385 H 131.86949624057402 62.317258240855466 144.99918064643447 H 0.0 **** 0.06
31386 C 110.71127979630756 164.07244748212048 129.13717908153032 C 0.0 **** -0.24
31387 H 111.30212730653506 163.23381452976912 128.76838553497942 H 0.0 **** 0.06
31388 H 109.81929483075601 163.69535845886531 129.6378649921862 H 0.0 **** 0.06
31389 H 110.41745532875393 164.70447254973237 128.299133033468 H 0.0 **** 0.06
31390 H 111.30634463693485 164.65417993642268 129.8406624532566 H 0.0 **** 0.06
31391 C 58.179526668317834 121.49131335860596 180.2896637452411 C 0.0 **** -0.24
31392 H 57.5438901977372 122.31036487994947 179.9529300691916 H 0.0 **** 0.06
31393 H 59.18761837890639 121.6290630801467 179.89773924320488 H 0.0 **** 0.06
31394 H 57.77517549652953 120.54564855970807 179.92793192223021 H 0.0 **** 0.06
31395 H 58.211437313643955 121.48032771391973 181.37906528050658 H 0.0 **** 0.06
31396 C 41.40549941388349 110.32791097579104 42.887423198450406 C 0.0 **** -0.24
31397 H 41.45561046335153 111.40722477496513 42.73898695834319 H 0.0 **** 0.06
31398 H 40.62378730233836 110.09761499953072 43.611205360066165 H 0.0 **** 0.06
31399 H 42.36433965569795 109.96816514694814 43.261007214627156 H 0.0 **** 0.06
31400 H 41.1796730401163 109.84098058429913 41.93972657791926 H 0.0 **** 0.06
31401 C 7.4827608949051125 75.84016684372345 190.8697547598117 C 0.0 **** -0.24
31402 H 8.298614336715758 76.17102095009064 191.51205561918286 H 0.0 **** 0.06
31403 H 6.697660212856704 75.39433346163031 191.48021375965635 H 0.0 **** 0.06
31404 H 7.856488392938161 75.10111581637408 190.15975049292388 H 0.0 **** 0.06
31405 H 7.080147850134011 76.69419099794683 190.3254137314511 H 0.0 **** 0.06
31406 C 123.4397757441466 98.42415980543322 85.90854178058362 C 0.0 **** -0.24
31407 H 122.8164137057505 99.2964035461062 86.10633540315462 H 0.0 **** 0.06
31408 H 124.1508082036463 98.29355849775715 86.72475243838085 H 0.0 **** 0.06
31409 H 123.98146757552033 98.56974909837245 84.97390206306102 H 0.0 **** 0.06
31410 H 122.81083476048676 97.53827600266098 85.82925257662112 H 0.0 **** 0.06
31411 C 51.450676884025995 174.7455757741923 12.494077544136701 C 0.0 **** -0.24
31412 H 51.360977851680815 175.26707712263104 13.447795606049539 H 0.0 **** 0.06
31413 H 52.49763780000677 174.50160446731576 12.311467184413203 H 0.0 **** 0.06
31414 H 51.08093811450249 175.3859480962354 11.693926189369222 H 0.0 **** 0.06
31415 H 50.86406957115403 173.82746023620336 12.526301778824205 H 0.0 **** 0.06
31416 C 76.89159484858851 50.40400906704485 7.854712701141693 C 0.0 **** -0.24
31417 H 77.2066838857138 51.34305304428125 8.309587395460426 H 0.0 **** 0.06
31418 H 77.7426229599136 49.93849630375311 7.3576566666630185 H 0.0 **** 0.06
31419 H 76.10673437678497 50.60004051364069 7.123936126529003 H 0.0 **** 0.06
31420 H 76.51127906134218 49.73580952582478 8.627163962477312 H 0.0 **** 0.06
31421 C 61.19696958079348 177.2914737704183 2.120267282802047 C 0.0 **** -0.24
31422 H 62.087165498496404 176.97143808604633 2.662700774448524 H 0.0 **** 0.06
31423 H 60.933552033477554 176.5391024073777 1.3769078753031465 H 0.0 **** 0.06
31424 H 61.39759403297711 178.2407119823512 1.6225039359356401 H 0.0 **** 0.06
31425 H 60.370899400549774 177.41575077437608 2.8203693919869295 H 0.0 **** 0.06
31426 C 50.98207911854894 118.62335169740152 56.943206117984516 C 0.0 **** -0.24
31427 H 51.98821612474194 118.66516994035362 56.52475508791977 H 0.0 **** 0.06
31428 H 50.62162118045552 117.59434876533032 56.91813120690426 H 0.0 **** 0.06
31429 H 50.31788509800839 119.2560666214772 56.35501159551177 H 0.0 **** 0.06
31430 H 51.00274559425071 118.97676522900383 57.97442116268934 H 0.0 **** 0.06
31431 C 126.01935902361978 5.585152877257201 82.84041698691465 C 0.0 **** -0.24
31432 H 126.37219570371002 5.191329630132003 83.79356766188971 H 0.0 **** 0.06
31433 H 126.75581626713944 5.373532696617048 82.06537937222345 H 0.0 **** 0.06
31434 H 125.87836961078017 6.663813793276347 82.92368969572158 H 0.0 **** 0.06
31435 H 125.07130708616339 5.114623198493348 82.58095790530513 H 0.0 **** 0.06
31436 C 130.4542644443319 172.60345273475343 51.95111212977923 C 0.0 **** -0.24
31437 H 131.05008461431066 172.9416663897195 51.101989888510474 H 0.0 **** 0.06
31438 H 131.11725754034902 172.29070371424547 52.75770179251768 H 0.0 **** 0.06
31439 H 129.8307822276489 171.76339293835733 51.64465633923807 H 0.0 **** 0.06
31440 H 129.8195610414657 173.41975149736894 52.29613764440141 H 0.0 **** 0.06
31441 C 16.799717068051507 139.21556228176826 54.7156967081454 C 0.0 **** -0.24
31442 H 17.118787067805272 139.79829388200622 53.851154681938965 H 0.0 **** 0.06
31443 H 15.757768257432645 138.9182215184829 54.58775969498254 H 0.0 **** 0.06
31444 H 16.898213901425436 139.8194533744503 55.61755844727955 H 0.0 **** 0.06
31445 H 17.42332957460883 138.32556460386294 54.80316824032181 H 0.0 **** 0.06
31446 C 18.556812603420497 181.2107919929893 114.03655206553992 C 0.0 **** -0.24
31447 H 17.72668240809702 180.8890196291562 113.40830205893735 H 0.0 **** 0.06
31448 H 18.178654268197135 181.8331306662945 114.84814589918767 H 0.0 **** 0.06
31449 H 19.265070525232204 181.7838280835801 113.43885229235201 H 0.0 **** 0.06
31450 H 19.05759506780862 180.33575493478577 114.45244962680306 H 0.0 **** 0.06
31451 C 96.40299272658655 98.78484940101748 132.19807983120307 C 0.0 **** -0.24
31452 H 96.79755705145888 98.86213150951616 131.18454040465716 H 0.0 **** 0.06
31453 H 96.37339258101602 99.77561687091676 132.65221015158647 H 0.0 **** 0.06
31454 H 97.04528089659945 98.13142459678218 132.7884836028806 H 0.0 **** 0.06
31455 H 95.3957075605216 98.37050363020018 132.1639353567477 H 0.0 **** 0.06
31456 C 165.31788577851637 59.91906888281687 92.15385749441373 C 0.0 **** -0.24
31457 H 165.95183722627746 60.22258157480934 91.31989087604768 H 0.0 **** 0.06
31458 H 164.85571167165546 58.95863159965492 91.92791285376765 H 0.0 **** 0.06
31459 H 164.5423690757989 60.66819006523025 92.31139785628784 H 0.0 **** 0.06
31460 H 165.9239983236057 59.82870097128452 93.0560730653755 H 0.0 **** 0.06
31461 C 33.03606611296931 177.92742150035517 87.55438916087269 C 0.0 **** -0.24
31462 H 33.01877918593274 177.3265706356271 86.64437426433079 H 0.0 **** 0.06
31463 H 32.994698229331846 177.27078116817577 88.42338217193577 H 0.0 **** 0.06
31464 H 32.17672467546112 178.59747759518632 87.56343313184888 H 0.0 **** 0.06
31465 H 33.95444760187641 178.51314401763474 87.58465863380525 H 0.0 **** 0.06
31466 C 186.79857656517316 63.43811348385141 61.45638761102373 C 0.0 **** -0.24
31467 H 186.3157202934649 64.31032034289865 61.01483499275736 H 0.0 **** 0.06
31468 H 186.03784782435497 62.74785390910914 61.82118233099527 H 0.0 **** 0.06
31469 H 187.43114747404593 63.75413758079844 62.285503093707234 H 0.0 **** 0.06
31470 H 187.4088594767373 62.94079925127612 60.70202163876695 H 0.0 **** 0.06
31471 C 153.1723874971497 131.41510512428056 146.30659811328164 C 0.0 **** -0.24
31472 H 153.95755956872983 130.7296365089105 146.62621395557912 H 0.0 **** 0.06
31473 H 153.4610012076954 132.43742528295255 146.55286691526555 H 0.0 **** 0.06
31474 H 152.24158985094255 131.16625368479396 146.81690723402554 H 0.0 **** 0.06
31475 H 153.03088802309847 131.32628671699936 145.22895025975626 H 0.0 **** 0.06
31476 C 105.13283288161739 65.06655632061364 187.41962443447323 C 0.0 **** -0.24
31477 H 105.37626557797799 64.72536890015391 186.41335193060047 H 0.0 **** 0.06
31478 H 105.91458204289987 65.73775850087969 187.77441810951214 H 0.0 **** 0.06
31479 H 105.05929858639578 64.20746639714264 188.08623668078764 H 0.0 **** 0.06
31480 H 104.17961259967663 65.59530113231403 187.4011120047807 H 0.0 **** 0.06
31481 C 76.61590600636265 70.15412663375454 44.386389605412205 C 0.0 **** -0.24
31482 H 76.77477896592535 69.13712673147094 44.026526737252055 H 0.0 **** 0.06
31483 H 76.81293003552388 70.85955737413639 43.57811321662878 H 0.0 **** 0.06
31484 H 77.2914838467779 70.35498151069129 45.21719557443953 H 0.0 **** 0.06
31485 H 75.58447634612243 70.2646751999076 44.72149340793278 H 0.0 **** 0.06
31486 C 40.08674181712141 42.492066885967574 157.7888850272666 C 0.0 **** -0.24
31487 H 40.57506223417903 43.46311392223822 157.70202580816584 H 0.0 **** 0.06
31488 H 39.60832793705947 42.2405615381349 156.84162533186344 H 0.0 **** 0.06
31489 H 39.33459859469505 42.533827066660564 158.57612153759834 H 0.0 **** 0.06
31490 H 40.82906876899813 41.7330674628308 158.0349363333017 H 0.0 **** 0.06
31491 C 142.10421120041116 26.156683924697845 198.3109663946913 C 0.0 **** -0.24
31492 H 141.12224983115053 26.27254034854934 197.85332481097475 H 0.0 **** 0.06
31493 H 142.74418488135785 25.567488511470998 197.65363987761404 H 0.0 **** 0.06
31494 H 142.00018130080008 25.647477972128996 199.26943067391795 H 0.0 **** 0.06
31495 H 142.5502287883361 27.139228866642156 198.46747021625845 H 0.0 **** 0.06
31496 C 69.90487569516364 3.2907730075215724 37.91957083957904 C 0.0 **** -0.24
31497 H 69.7377625793527 2.2415670570704407 37.67565535074732 H 0.0 **** 0.06
31498 H 70.5992822563361 3.724014950275837 37.19935445531328 H 0.0 **** 0.06
31499 H 70.32530523504408 3.3674231684416185 38.92161645108314 H 0.0 **** 0.06
31500 H 68.95746366841428 3.8281230313322467 37.880633962737235 H 0.0 **** 0.06
31501 C 94.91429701729965 55.240050298209354 131.6600122086357 C 0.0 **** -0.24
31502 H 95.80099424416767 54.649533574257575 131.89172047425456 H 0.0 **** 0.06
31503 H 95.18400512958868 56.29524403740915 131.60955031542758 H 0.0 **** 0.06
31504 H 94.16681114785848 55.092538348834694 132.43907303270265 H 0.0 **** 0.06
31505 H 94.50771753072013 54.92228571846225 130.7001114500207 H 0.0 **** 0.06
31506 C 163.87715741259996 175.3321045498427 151.8898388487981 C 0.0 **** -0.24
31507 H 163.5719443143553 174.28623592091475 151.90371106098542 H 0.0 **** 0.06
31508 H 163.6045761954294 175.77700465182937 150.93239638076966 H 0.0 **** 0.06
31509 H 164.95648429080705 175.39717967668844 152.02696068374001 H 0.0 **** 0.06
31510 H 163.37469365693724 175.86696404784186 152.6960343477221 H 0.0 **** 0.06
31511 C 21.140046534144375 91.06814986870154 186.49076351689797 C 0.0 **** -0.24
31512 H 20.429483371225203 90.42904323444287 187.01476578815607 H 0.0 **** 0.06
31513 H 20.667062434104125 92.02299449282847 186.25902769805896 H 0.0 **** 0.06
31514 H 21.450460600231892 90.58281671351358 185.56501488148467 H 0.0 **** 0.06
31515 H 22.01170119358366 91.23727212482049 187.12298460100055 H 0.0 **** 0.06
31516 C 26.910308315988175 137.77255967515376 63.095563714491504 C 0.0 **** -0.24
31517 H 27.12917182890368 138.83881877577184 63.03881890124836 H 0.0 **** 0.06
31518 H 27.67271930016443 137.277131831355 63.696817760465365 H 0.0 **** 0.06
31519 H 26.905717210688636 137.34813388645702 62.09226299925581 H 0.0 **** 0.06
31520 H 25.933230800977697 137.62752469991966 63.556346815893676 H 0.0 **** 0.06
31521 C 195.14974564963347 182.19665206547936 24.07875785224209 C 0.0 **** -0.24
31522 H 196.18790270652582 182.4727679675167 23.893715642433733 H 0.0 **** 0.06
31523 H 194.60591110012163 182.17577089038988 23.133985574698556 H 0.0 **** 0.06
31524 H 194.6925794543128 182.92700264050382 24.745814651990088 H 0.0 **** 0.06
31525 H 195.11456156704386 181.20927736431625 24.540134034868174 H 0.0 **** 0.06
31526 C 73.229550526059 71.03547080697815 164.1243911836185 C 0.0 **** -0.24
31527 H 72.77772858026664 70.13961756083577 163.69869343995813 H 0.0 **** 0.06
31528 H 72.62226542168557 71.90413116432188 163.86947811372028 H 0.0 **** 0.06
31529 H 74.23340389926302 71.16310820844032 163.71893491249546 H 0.0 **** 0.06
31530 H 73.28492036337916 70.93454366423096 165.20827797404098 H 0.0 **** 0.06
31531 C 128.5444644348422 38.190287634872504 18.977410225460574 C 0.0 **** -0.24
31532 H 129.02432019684605 38.744634020443954 19.78446427074215 H 0.0 **** 0.06
31533 H 127.82601709187853 37.48667199783429 19.39825359110739 H 0.0 **** 0.06
31534 H 129.30009424441218 37.64533898291083 18.412511812180753 H 0.0 **** 0.06
31535 H 128.0274280747568 38.88667591627808 18.3169191539929 H 0.0 **** 0.06
31536 C 53.93037657249897 4.381170353155085 23.267143766668227 C 0.0 **** -0.24
31537 H 54.15485842288746 5.391002849284945 23.60896519230087 H 0.0 **** 0.06
31538 H 52.87801749027369 4.1613151944874645 23.451523239823345 H 0.0 **** 0.06
31539 H 54.5508081063374 3.668068627519915 23.809661338705865 H 0.0 **** 0.06
31540 H 54.13587024171835 4.30476540108608 22.20041733900827 H 0.0 **** 0.06
31541 C 47.655911640098964 182.54831854703207 186.17823787253633 C 0.0 **** -0.24
31542 H 47.130563337563046 182.2510788916615 185.2708650598295 H 0.0 **** 0.06
31543 H 48.152493609840036 183.50536837300834 186.01280299329852 H 0.0 **** 0.06
31544 H 48.39910376921458 181.79258545688845 186.43236901364605 H 0.0 **** 0.06
31545 H 46.941178850449035 182.64600635311922 186.99557612645054 H 0.0 **** 0.06
31546 C 80.39168865084395 158.37634679580265 90.26595340410259 C 0.0 **** -0.24
31547 H 80.06935054149662 157.69868977166533 89.47581305645727 H 0.0 **** 0.06
31548 H 79.57980129566576 158.5117309061418 90.98168295030774 H 0.0 **** 0.06
31549 H 80.65879527285159 159.3398141463404 89.83199442486398 H 0.0 **** 0.06
31550 H 81.25877173302743 157.9539488134361 90.77506496800848 H 0.0 **** 0.06
31551 C 98.94294382833286 7.086847741953477 15.37422336447851 C 0.0 **** -0.24
31552 H 99.16674560758833 6.715340685024827 14.37349263933504 H 0.0 **** 0.06
31553 H 98.37367376261105 8.013138627415607 15.298549962320195 H 0.0 **** 0.06
31554 H 99.87464057869519 7.275137714838593 15.90747258268577 H 0.0 **** 0.06
31555 H 98.35829478744546 6.343109595445469 15.915627788422512 H 0.0 **** 0.06
31556 C 96.1758470387181 63.637093898425405 46.92033737332986 C 0.0 **** -0.24
31557 H 95.46146292373524 62.82487897294942 47.05729338231674 H 0.0 **** 0.06
31558 H 95.6547794986241 64.52295173271625 46.5582211172903 H 0.0 **** 0.06
31559 H 96.9315844443204 63.336139667118175 46.19370800331839 H 0.0 **** 0.06
31560 H 96.65640145027024 63.86105103151789 47.87314866655164 H 0.0 **** 0.06
31561 C 113.07154117321932 133.32791680567547 40.16064878357666 C 0.0 **** -0.24
31562 H 112.38702297309538 134.0432094686449 39.70398376808346 H 0.0 **** 0.06
31563 H 114.09772074238975 133.59110676246826 39.90202116602124 H 0.0 **** 0.06
31564 H 112.8482931989314 132.32656675224203 39.79194415508991 H 0.0 **** 0.06
31565 H 112.95184023745585 133.35198836979882 41.24370137877804 H 0.0 **** 0.06
31566 C 87.85960055426986 172.27375681479543 189.28778738414348 C 0.0 **** -0.24
31567 H 86.89993475131462 172.78788605078705 189.23751461362235 H 0.0 **** 0.06
31568 H 88.64682108270097 172.9393467184491 188.93175279027224 H 0.0 **** 0.06
31569 H 87.82722097752202 171.38188819047613 188.66143235913432 H 0.0 **** 0.06
31570 H 88.06530407087425 171.98614070256767 190.31840695429088 H 0.0 **** 0.06
31571 C 18.72427609253492 48.16250339812086 18.542068758363257 C 0.0 **** -0.24
31572 H 19.493778163737886 48.875397696059906 18.838499133525886 H 0.0 **** 0.06
31573 H 18.519613156420803 47.48346138350689 19.37003778935761 H 0.0 **** 0.06
31574 H 19.069685598602405 47.59299788624759 17.680002404010395 H 0.0 **** 0.06
31575 H 17.813032810636145 48.70127633684598 18.280263282135877 H 0.0 **** 0.06
31576 C 191.8895303700628 84.65665100056367 132.46145217984454 C 0.0 **** -0.24
31577 H 192.73448879405439 84.55756416804698 131.77947654967673 H 0.0 **** 0.06
31578 H 191.94188347930321 83.87618029152429 133.22045896748858 H 0.0 **** 0.06
31579 H 190.95867040863493 84.55808615992117 131.90268890809466 H 0.0 **** 0.06
31580 H 191.9231901930383 85.6340068545365 132.9420010490398 H 0.0 **** 0.06
31581 C 104.4181253564359 60.60156794027198 91.54155931409392 C 0.0 **** -0.24
31582 H 105.09764372694485 59.98104143050894 92.12675017346936 H 0.0 **** 0.06
31583 H 104.24269054274185 60.13222294759697 90.57278244685062 H 0.0 **** 0.06
31584 H 104.86219344093945 61.58562042894873 91.39296621834481 H 0.0 **** 0.06
31585 H 103.4728944816851 60.70577362243206 92.07204531805786 H 0.0 **** 0.06
31586 C 154.9848078248715 69.91477446507966 109.7393820977212 C 0.0 **** -0.24
31587 H 155.9829608770787 70.14291843735242 109.36475360485849 H 0.0 **** 0.06
31588 H 155.0152691770387 68.98984528403398 110.31527166849605 H 0.0 **** 0.06
31589 H 154.3000630920186 69.79781299793632 108.89882789384751 H 0.0 **** 0.06
31590 H 154.6412887016977 70.72980386803957 110.37687749309339 H 0.0 **** 0.06
31591 C 41.5491124554278 161.90847205715 58.41274320065439 C 0.0 **** -0.24
31592 H 40.81879203219286 161.24186823854598 58.87010529458277 H 0.0 **** 0.06
31593 H 41.13051099073448 162.33649827215 57.502259241157276 H 0.0 **** 0.06
31594 H 42.45096472613626 161.34671515008537 58.16897415734124 H 0.0 **** 0.06
31595 H 41.79725509765845 162.7093321947935 59.11039066544497 H 0.0 **** 0.06
31596 C 102.88538257642716 84.09287075491969 16.1610892886834 C 0.0 **** -0.24
31597 H 103.06475247850585 84.617244002978 15.222823972319617 H 0.0 **** 0.06
31598 H 101.88067688030512 83.66961443057787 16.153392405181364 H 0.0 **** 0.06
31599 H 102.98016084204019 84.79137724711339 16.992209276044377 H 0.0 **** 0.06
31600 H 103.61606657998084 83.29124994371799 16.274934242858507 H 0.0 **** 0.06
31601 C 28.535617708334655 110.7648778174611 97.55440579940148 C 0.0 **** -0.24
31602 H 28.145108999126677 110.22386827887604 96.69346313408528 H 0.0 **** 0.06
31603 H 27.711293581397456 111.05753699125975 98.2052783207481 H 0.0 **** 0.06
31604 H 29.064177760707025 111.65596486318046 97.21386819810994 H 0.0 **** 0.06
31605 H 29.222883416761647 110.12312727185568 98.10521770386765 H 0.0 **** 0.06
31606 C 90.85671584822467 168.1149375609025 193.28981080168276 C 0.0 **** -0.24
31607 H 90.92573424386339 168.00240963662424 192.20752173483677 H 0.0 **** 0.06
31608 H 91.70101792477686 167.61097670676546 193.76146445513535 H 0.0 **** 0.06
31609 H 89.92505095707543 167.67097555730172 193.64160188833262 H 0.0 **** 0.06
31610 H 90.87522846587933 169.17409508701544 193.5457742579788 H 0.0 **** 0.06
31611 C 14.836167478390053 41.6662279207501 23.655560223818497 C 0.0 **** -0.24
31612 H 15.04032952753981 41.498322624204235 24.71342475662783 H 0.0 **** 0.06
31613 H 13.943151694690492 41.11227843523349 23.365433581257548 H 0.0 **** 0.06
31614 H 15.68485533168446 41.324973016281135 23.06350812999966 H 0.0 **** 0.06
31615 H 14.676145439851553 42.73085746176085 23.48225243105702 H 0.0 **** 0.06
31616 C 36.06666401574415 172.75095903874245 37.73203773950655 C 0.0 **** -0.24
31617 H 36.95065461322085 173.03523322265144 37.16178035897005 H 0.0 **** 0.06
31618 H 35.17266308091496 172.95953199296633 37.14334396551851 H 0.0 **** 0.06
31619 H 36.033648131528366 173.32414520878314 38.65928542847601 H 0.0 **** 0.06
31620 H 36.11017372771536 171.68710500307418 37.96273267242594 H 0.0 **** 0.06
31621 C 136.98218052473513 21.690426340399625 67.93024932920193 C 0.0 **** -0.24
31622 H 137.9975553763466 21.970865545434876 68.2098444631356 H 0.0 **** 0.06
31623 H 136.94288480706962 20.618732831479107 67.7325713728035 H 0.0 **** 0.06
31624 H 136.68948732478935 22.237072890950827 67.033551536365 H 0.0 **** 0.06
31625 H 136.3005061554378 21.936313764539577 68.7438328151888 H 0.0 **** 0.06
31626 C 170.2391714048578 5.045235140153693 76.66701879181943 C 0.0 **** -0.24
31627 H 170.11141688413335 4.7406736611899305 77.70578622036783 H 0.0 **** 0.06
31628 H 170.95938634609053 5.861895156504204 76.61446838751363 H 0.0 **** 0.06
31629 H 169.2822548751925 5.378098712692292 76.26504954063648 H 0.0 **** 0.06
31630 H 170.60450471523495 4.199417512530488 76.08347717081244 H 0.0 **** 0.06
31631 C 87.58631504390064 39.52036842823611 76.45218049811223 C 0.0 **** -0.24
31632 H 87.47312823611207 38.480953736299824 76.76134152670586 H 0.0 **** 0.06
31633 H 87.38471462557413 39.60534406182373 75.38446139145331 H 0.0 **** 0.06
31634 H 88.60385950557122 39.850607179741104 76.65799908340539 H 0.0 **** 0.06
31635 H 86.88323824159443 40.142506344369906 77.00572281697671 H 0.0 **** 0.06
31636 C 124.429621136105 96.9698079929108 45.681986098832624 C 0.0 **** -0.24
31637 H 124.47186440454897 96.12128942002485 46.36547526324887 H 0.0 **** 0.06
31638 H 125.44244711614854 97.29319007671373 45.442073112348794 H 0.0 **** 0.06
31639 H 123.88680958290217 97.78926205118839 46.15463964819838 H 0.0 **** 0.06
31640 H 123.91569697687612 96.67349670027372 44.76781748835327 H 0.0 **** 0.06
31641 C 80.8629391282073 173.4584082167298 66.00688736488353 C 0.0 **** -0.24
31642 H 80.01911365895671 173.51996058426198 65.32076380949164 H 0.0 **** 0.06
31643 H 80.51535719042076 173.62864800830312 67.02673241714679 H 0.0 **** 0.06
31644 H 81.60061322573125 174.21630462294706 65.74388615237086 H 0.0 **** 0.06
31645 H 81.3159266199527 172.47027811084737 65.93717457568462 H 0.0 **** 0.06
31646 C 85.51180538866089 102.59988350612116 64.0004771055574 C 0.0 **** -0.24
31647 H 84.47257079136608 102.34641313426698 63.79032499023364 H 0.0 **** 0.06
31648 H 85.55009019501512 103.51779790358216 64.58796849965665 H 0.0 **** 0.06
31649 H 86.0471051842571 102.7455045510784 63.0619610788373 H 0.0 **** 0.06
31650 H 85.97669388143555 101.78862685620271 64.56163665721893 H 0.0 **** 0.06
31651 C 41.875505079641755 77.41127806683144 49.07641265241941 C 0.0 **** -0.24
31652 H 42.57399241001016 77.03983693661246 49.82626038290658 H 0.0 **** 0.06
31653 H 42.40463985844178 78.06311903069266 48.37958593311777 H 0.0 **** 0.06
31654 H 41.08031908125395 77.97183265696125 49.566885322652126 H 0.0 **** 0.06
31655 H 41.445982436351215 76.57026749887136 48.53220570417494 H 0.0 **** 0.06
31656 C 43.12883454920818 145.04711470585502 186.80276877738805 C 0.0 **** -0.24
31657 H 42.61376524354321 145.10913219854748 187.76075212628368 H 0.0 **** 0.06
31658 H 43.210682417589794 144.0020387971852 186.5014981560518 H 0.0 **** 0.06
31659 H 44.12643457824147 145.47731631134832 186.89884413043595 H 0.0 **** 0.06
31660 H 42.56606392709247 145.59973103675455 186.05057791372235 H 0.0 **** 0.06
31661 C 12.897716838629968 66.66782090228799 118.58915406021802 C 0.0 **** -0.24
31662 H 12.598415042055251 66.13953084092702 117.68275526609949 H 0.0 **** 0.06
31663 H 13.913851120452122 67.04545552802472 118.4697056561252 H 0.0 **** 0.06
31664 H 12.860817380490502 65.98403535554161 119.43652140299204 H 0.0 **** 0.06
31665 H 12.217599239473131 67.50143617922532 118.76398913221439 H 0.0 **** 0.06
31666 C 176.7666731808276 58.19806797758814 56.37628257920693 C 0.0 **** -0.24
31667 H 177.2442895286951 57.83394855769842 57.28659152780119 H 0.0 **** 0.06
31668 H 176.3378897590104 59.18350270123115 56.561449771739746 H 0.0 **** 0.06
31669 H 175.9774462145449 57.507990067545336 56.079073996989564 H 0.0 **** 0.06
31670 H 177.5085363490115 58.26706053374065 55.58114376533709 H 0.0 **** 0.06
31671 C 144.74739390793354 46.231065184858096 151.18590335427876 C 0.0 **** -0.24
31672 H 144.20813254313057 46.584666719896745 152.06559241951703 H 0.0 **** 0.06
31673 H 145.7812469369399 46.572844758177325 151.23200447440308 H 0.0 **** 0.06
31674 H 144.27266849956212 46.62520269834329 150.2864795813152 H 0.0 **** 0.06
31675 H 144.72503466551828 45.141281378195856 151.16118463404072 H 0.0 **** 0.06
31676 C 27.523079977357213 147.57490690628015 192.326578495484 C 0.0 **** -0.24
31677 H 28.429607920886212 146.97542906059414 192.24790787625588 H 0.0 **** 0.06
31678 H 27.642608801114534 148.3101462599475 193.1228866357275 H 0.0 **** 0.06
31679 H 26.677315122613123 146.92671700920562 192.55390057849473 H 0.0 **** 0.06
31680 H 27.343806476054738 148.08831062530678 191.38151112642865 H 0.0 **** 0.06
31681 C 21.34055676441251 27.5809429159777 51.3563060625072 C 0.0 **** -0.24
31682 H 20.863040403031604 26.680944306220724 51.745111068737174 H 0.0 **** 0.06
31683 H 22.28936524916071 27.314781372931918 50.889465410420854 H 0.0 **** 0.06
31684 H 21.521074209503908 28.277608313423542 52.17572810639638 H 0.0 **** 0.06
31685 H 20.689057521181923 28.0478697563848 50.6184282142861 H 0.0 **** 0.06
31686 C 101.75415420615843 111.72596594768095 41.78591993863506 C 0.0 **** -0.24
31687 H 102.39773023921796 112.60501102817952 41.78089070003958 H 0.0 **** 0.06
31688 H 101.71342737656988 111.2992809270558 40.7828626429216 H 0.0 **** 0.06
31689 H 100.75047405687809 112.01244978900505 42.09993880416408 H 0.0 **** 0.06
31690 H 102.15424239045959 110.98629682376679 42.47911161880563 H 0.0 **** 0.06
31691 C 158.8992901133804 142.8102935808352 102.41937808756268 C 0.0 **** -0.24
31692 H 159.87057941492066 143.30466186419943 102.42233936616046 H 0.0 **** 0.06
31693 H 158.34543142591988 143.09233523757956 103.3156162098322 H 0.0 **** 0.06
31694 H 159.04236497446578 141.73012442478324 102.40646121285485 H 0.0 **** 0.06
31695 H 158.3387928218891 143.1138069627706 101.53531808401294 H 0.0 **** 0.06
31696 C 195.55352844223705 195.1729623043916 37.31198666956209 C 0.0 **** -0.24
31697 H 196.4071103614977 195.84572892709264 37.39471912963313 H 0.0 **** 0.06
31698 H 195.74875772800732 194.43006973565792 36.53863303819685 H 0.0 **** 0.06
31699 H 194.66367182140732 195.74587017503447 37.04894204692562 H 0.0 **** 0.06
31700 H 195.39265561696374 194.67087877465733 38.26656498958482 H 0.0 **** 0.06
31701 C 18.98451845943842 19.832756861786777 27.73684275937572 C 0.0 **** -0.24
31702 H 18.208287661298556 19.65391486091258 26.99352254157256 H 0.0 **** 0.06
31703 H 18.529053163666347 20.20944335496722 28.6542594559008 H 0.0 **** 0.06
31704 H 19.691009398246024 20.5685222678826 27.353204266361516 H 0.0 **** 0.06
31705 H 19.508644789755294 18.900633657705754 27.948005269510077 H 0.0 **** 0.06
31706 C 198.9589473295585 113.94515047467723 135.13843931936435 C 0.0 **** -0.24
31707 H 199.95272984371874 113.93400556444158 134.69093536923162 H 0.0 **** 0.06
31708 H 199.0063863797089 113.5165099836994 136.14017310513987 H 0.0 **** 0.06
31709 H 198.27693103501645 113.35779954095898 134.52340489488324 H 0.0 **** 0.06
31710 H 198.59974205978978 114.97228680960882 135.19924390820233 H 0.0 **** 0.06
31711 C 71.18269007470906 94.31916459315687 65.78674994635793 C 0.0 **** -0.24
31712 H 72.18426543536388 93.9191707086436 65.6309797415363 H 0.0 **** 0.06
31713 H 70.7424409203952 94.5796139360358 64.82465770214958 H 0.0 **** 0.06
31714 H 71.24009582787743 95.20823192253215 66.41443899168382 H 0.0 **** 0.06
31715 H 70.56359390539521 93.5668997768633 66.27751394600648 H 0.0 **** 0.06
31716 C 61.095595607815596 168.04000174533923 68.51352935636146 C 0.0 **** -0.24
31717 H 60.38000836321329 168.60868729787526 69.10685751780356 H 0.0 **** 0.06
31718 H 60.76666394613896 167.00247580010472 68.44415654623363 H 0.0 **** 0.06
31719 H 62.07563209225533 168.07928382698316 68.9900900677779 H 0.0 **** 0.06
31720 H 61.16078579676936 168.4684110133452 67.51343615178403 H 0.0 **** 0.06
31721 C 135.0444235993508 30.202133138628625 139.1152302656351 C 0.0 **** -0.24
31722 H 135.63815728837727 29.75521193521115 138.31702511993842 H 0.0 **** 0.06
31723 H 135.48933663173455 31.15338767951374 139.40945110517725 H 0.0 **** 0.06
31724 H 135.02346367793857 29.529293050466507 139.97243652822522 H 0.0 **** 0.06
31725 H 134.02761433843162 30.37101074806401 138.75998531709774 H 0.0 **** 0.06
31726 C 108.88923622406818 88.31926385586317 149.32201994023458 C 0.0 **** -0.24
31727 H 109.58155288317465 88.71262398379866 150.06657426461442 H 0.0 **** 0.06
31728 H 108.69123591459524 89.08454230308774 148.57187099057222 H 0.0 **** 0.06
31729 H 107.95605972637676 88.03563896755008 149.8083790902788 H 0.0 **** 0.06
31730 H 109.32993888604446 87.44465925288713 148.84281680029048 H 0.0 **** 0.06
31731 C 133.5911665329146 81.78619373595714 108.08846875038205 C 0.0 **** -0.24
31732 H 134.44062896287323 82.39833463263835 108.39384199160156 H 0.0 **** 0.06
31733 H 133.9540559817935 80.88034698561276 107.60218631349801 H 0.0 **** 0.06
31734 H 132.96967032678654 82.34842512281398 107.39231503766493 H 0.0 **** 0.06
31735 H 133.00433723172884 81.51731931173128 108.96634834406785 H 0.0 **** 0.06
31736 C 138.88944480869338 175.83740775303565 101.22574150277515 C 0.0 **** -0.24
31737 H 137.96739314162227 175.46017127337984 100.78234995436924 H 0.0 **** 0.06
31738 H 139.71645316573665 175.17990683910904 100.95703643122408 H 0.0 **** 0.06
31739 H 138.7852506297407 175.86577626138993 102.31084864269906 H 0.0 **** 0.06
31740 H 139.08763860847932 176.84174881333564 100.85362472137527 H 0.0 **** 0.06
31741 C 3.897521968064474 194.89562907579432 88.96801902214 C 0.0 **** -0.24
31742 H 4.695320923363525 195.01346857395205 88.23445350341333 H 0.0 **** 0.06
31743 H 2.946802605153138 194.76448479775158 88.45158069418943 H 0.0 **** 0.06
31744 H 3.8501970902071037 195.78356438294924 89.59876931940047 H 0.0 **** 0.06
31745 H 4.099645967274618 194.0213811426205 89.58612184807876 H 0.0 **** 0.06
31746 C 115.54707715419602 25.11589275724279 176.12395259517444 C 0.0 **** -0.24
31747 H 114.61623114551685 25.644722074922555 175.92252540466134 H 0.0 **** 0.06
31748 H 115.52807060737632 24.14565569261157 175.62707284823378 H 0.0 **** 0.06
31749 H 115.6580278668007 24.971436084963116 177.19830908944763 H 0.0 **** 0.06
31750 H 116.38602444550531 25.70081928022576 175.74755908096546 H 0.0 **** 0.06
31751 C 109.99691854237332 42.90317834459313 106.34282594300228 C 0.0 **** -0.24
31752 H 109.11801957988038 43.43576537890101 106.7078291946327 H 0.0 **** 0.06
31753 H 109.90452675099223 41.84371568445293 106.58360868704145 H 0.0 **** 0.06
31754 H 110.89038872394562 43.307707167404885 106.82041801798997 H 0.0 **** 0.06
31755 H 110.07390062716374 43.02659614259183 105.26334020788224 H 0.0 **** 0.06
31756 C 64.48087628612177 91.11126256952275 88.5679651099793 C 0.0 **** -0.24
31757 H 64.6667071071851 92.12966730393828 88.90854458084857 H 0.0 **** 0.06
31758 H 64.87983429482286 90.98617645451091 87.5608639858076 H 0.0 **** 0.06
31759 H 63.40766804731955 90.92023625783969 88.56091448002132 H 0.0 **** 0.06
31760 H 64.97083323848193 90.40871701622717 89.24314111868193 H 0.0 **** 0.06
31761 C 91.56479208145598 7.788677462385692 185.657355627705 C 0.0 **** -0.24
31762 H 91.70204958658206 6.7072113400323445 185.70045008894644 H 0.0 **** 0.06
31763 H 91.3368735866959 8.08532634556068 184.6333418133903 H 0.0 **** 0.06
31764 H 92.47892159835047 8.283002407751745 185.9847296290814 H 0.0 **** 0.06
31765 H 90.74218041479537 8.075851353238313 186.31140521259158 H 0.0 **** 0.06
31766 C 92.25304912528736 141.11434583933726 164.24214176617215 C 0.0 **** -0.24
31767 H 91.52959780760045 141.83360622128194 164.62443792041654 H 0.0 **** 0.06
31768 H 92.51209441702918 141.3712909314049 163.21473850971876 H 0.0 **** 0.06
31769 H 91.82027926917726 140.11427138690192 164.26921620180832 H 0.0 **** 0.06
31770 H 93.15056131882613 141.13915455434955 164.86011269665238 H 0.0 **** 0.06
31771 C 111.82472121436413 107.8457668241881 43.281004273558295 C 0.0 **** -0.24
31772 H 111.56538674530529 107.61784466238225 42.24644502721006 H 0.0 **** 0.06
31773 H 111.0762754419371 108.51553673623778 43.703848052341684 H 0.0 **** 0.06
31774 H 112.80182676434242 108.32633199290069 43.31258772363883 H 0.0 **** 0.06
31775 H 111.85451908397167 106.9215808867205 43.85888067953664 H 0.0 **** 0.06
31776 C 89.02249416586224 118.55421760724204 104.47775958623924 C 0.0 **** -0.24
31777 H 88.61283165105678 119.56177227980052 104.54966152881104 H 0.0 **** 0.06
31778 H 88.25918037214026 117.87818589476706 104.09236386698606 H 0.0 **** 0.06
31779 H 89.3395334070895 118.22038984466886 105.46620677543294 H 0.0 **** 0.06
31780 H 89.87936895501554 118.5578665326961 103.80462665192866 H 0.0 **** 0.06
31781 C 41.42569436966387 101.11246391600798 3.7892771463237622 C 0.0 **** -0.24
31782 H 40.39588338535664 101.46562756176874 3.740089255804129 H 0.0 **** 0.06
31783 H 41.4650554416537 100.18992600915774 4.371315177660108 H 0.0 **** 0.06
31784 H 42.04830037852699 101.86959326533821 4.266135188320085 H 0.0 **** 0.06
31785 H 41.79316886750293 100.92158564920243 2.7810213940755375 H 0.0 **** 0.06
31786 C 81.28370577400125 160.44356303523796 6.789841399149964 C 0.0 **** -0.24
31787 H 81.52483367492306 161.20059174981157 7.535079958880203 H 0.0 **** 0.06
31788 H 80.20300016630603 160.3037177089815 6.750606511496443 H 0.0 **** 0.06
31789 H 81.76189748135454 159.50179747592836 7.061171509147584 H 0.0 **** 0.06
31790 H 81.64358360217082 160.7657364343811 5.813468570876523 H 0.0 **** 0.06
31791 C 40.33679564315506 70.15935075889598 24.060381513396948 C 0.0 **** -0.24
31792 H 41.337921968270265 70.48864201401352 23.78218727857066 H 0.0 **** 0.06
31793 H 40.21380847771039 69.10798834617361 23.797081392574853 H 0.0 **** 0.06
31794 H 39.59639864690226 70.75598073429558 23.527561992698622 H 0.0 **** 0.06
31795 H 40.198337814557206 70.28360680327705 25.13498403298547 H 0.0 **** 0.06
31796 C 141.45890697257735 171.02697258933557 118.82008397485217 C 0.0 **** -0.24
31797 H 142.39391205152248 170.66749324122867 119.24999999801807 H 0.0 **** 0.06
31798 H 140.7131430341522 170.23367861191983 118.8556995135111 H 0.0 **** 0.06
31799 H 141.62601516433529 171.32329666669403 117.78404169883802 H 0.0 **** 0.06
31800 H 141.1036750850117 171.88618030799597 119.39021739288819 H 0.0 **** 0.06
31801 C 129.12136054717917 19.64901056844846 160.93562535908075 C 0.0 **** -0.24
31802 H 128.86358671575337 20.70146235162781 160.8218292451739 H 0.0 **** 0.06
31803 H 128.29804441366068 19.12376305713505 161.41881606588817 H 0.0 **** 0.06
31804 H 130.02007330198586 19.55899251171303 161.54657121304348 H 0.0 **** 0.06
31805 H 129.3055641251305 19.212676576454726 159.95306268565727 H 0.0 **** 0.06
31806 C 77.50714192972512 122.42122538133799 141.17992531633502 C 0.0 **** -0.24
31807 H 78.30525021430836 122.27584611474268 140.45112991145714 H 0.0 **** 0.06
31808 H 77.72216089056624 123.30492731854582 141.7820079093284 H 0.0 **** 0.06
31809 H 77.44177849526407 121.54683138342264 141.82698514948322 H 0.0 **** 0.06
31810 H 76.56048538357508 122.55833656047145 140.65765662847593 H 0.0 **** 0.06
31811 C 24.003910493533965 74.5516703459615 90.9778536888794 C 0.0 **** -0.24
31812 H 24.314932274786287 75.21866199407081 90.17355879026931 H 0.0 **** 0.06
31813 H 24.77322872683922 74.53088012236041 91.74993911889968 H 0.0 **** 0.06
31814 H 23.858512680631577 73.54737601465895 90.58221368201424 H 0.0 **** 0.06
31815 H 23.068392323910246 74.91205514543556 91.40634784917515 H 0.0 **** 0.06
31816 C 10.488847194204482 176.34461972555087 193.1049861183973 C 0.0 **** -0.24
31817 H 10.97220634493101 176.44123567454554 194.07672628619645 H 0.0 **** 0.06
31818 H 10.977767208855226 175.55650632546025 192.5320487944834 H 0.0 **** 0.06
31819 H 10.56674896174701 177.28808737092038 192.5657173769577 H 0.0 **** 0.06
31820 H 9.437702600579541 176.09241094552664 193.24557225114523 H 0.0 **** 0.06
31821 C 75.32526450444851 72.16032281622216 13.543089163901264 C 0.0 **** -0.24
31822 H 74.5953082351881 72.82225889415844 14.009146197153377 H 0.0 **** 0.06
31823 H 76.0969293743475 71.90339848822543 14.268591675759453 H 0.0 **** 0.06
31824 H 75.78069105676389 72.66605116348745 12.691232255502378 H 0.0 **** 0.06
31825 H 74.8272221241815 71.25185652047753 13.203469564669085 H 0.0 **** 0.06
31826 C 64.85647268256598 189.8836792904379 17.39099498755465 C 0.0 **** -0.24
31827 H 64.86491418841216 190.01512666323023 16.308709431778396 H 0.0 **** 0.06
31828 H 64.16555902413357 189.08209543212268 17.653714105027234 H 0.0 **** 0.06
31829 H 64.53681977342008 190.81026443087106 17.866786597623502 H 0.0 **** 0.06
31830 H 65.85964798585835 189.62600564953098 17.73244676286143 H 0.0 **** 0.06
31831 C 199.21194773256957 53.84596829584309 165.60585712152226 C 0.0 **** -0.24
31832 H 199.31799950801627 52.778219843914755 165.79772412656843 H 0.0 **** 0.06
31833 H 199.25415773582114 54.02763704283754 164.53148545165038 H 0.0 **** 0.06
31834 H 200.02246353566628 54.38539514020097 166.0975048897248 H 0.0 **** 0.06
31835 H 198.2554764046983 54.19202624246222 165.99614182943145 H 0.0 **** 0.06
31836 C 185.58278298694648 194.49832397056582 3.111327865669459 C 0.0 **** -0.24
31837 H 185.4948359181953 194.63388436107118 4.188701686029354 H 0.0 **** 0.06
31838 H 184.75679536730598 193.88230396500262 2.7541465202843938 H 0.0 **** 0.06
31839 H 186.52847279049217 194.00573089100186 2.8837283261412523 H 0.0 **** 0.06
31840 H 185.55163845161746 195.47059419790486 2.6188572365833735 H 0.0 **** 0.06
31841 C 34.705564129828375 49.509657335193 117.87079658409976 C 0.0 **** -0.24
31842 H 34.14092659378565 49.553908849046024 116.93939713028703 H 0.0 **** 0.06
31843 H 34.01457665327695 49.40857385552317 118.7084768020544 H 0.0 **** 0.06
31844 H 35.2868286735727 50.42406236246558 117.98773524103296 H 0.0 **** 0.06
31845 H 35.37753168635153 48.65172682409755 117.84795969413744 H 0.0 **** 0.06
31846 C 79.19296726114678 167.89642636874427 12.635276791458459 C 0.0 **** -0.24
31847 H 79.95601648163546 168.3567617363187 12.007775465032537 H 0.0 **** 0.06
31848 H 78.47531147371859 168.65414404530375 12.949394237604906 H 0.0 **** 0.06
31849 H 79.66379461696894 167.45532791906058 13.514872994647533 H 0.0 **** 0.06
31850 H 78.67863899990866 167.119312396496 12.070611422824847 H 0.0 **** 0.06
31851 C 138.1091601294841 189.45250749124565 95.86375380007777 C 0.0 **** -0.24
31852 H 137.3017358900407 190.15100751122083 96.08159659768086 H 0.0 **** 0.06
31853 H 137.7662684062882 188.71703024734495 95.1349862070418 H 0.0 **** 0.06
31854 H 138.40738446306526 188.9431801619426 96.78027308868303 H 0.0 **** 0.06
31855 H 138.9607105856801 189.99675349817258 95.45694701619891 H 0.0 **** 0.06
31856 C 110.86640901043768 100.6787571937881 122.81700922467076 C 0.0 **** -0.24
31857 H 111.08127379860042 101.74576808876725 122.74756438763876 H 0.0 **** 0.06
31858 H 111.70042758073797 100.11314773738337 122.40290099553181 H 0.0 **** 0.06
31859 H 109.95930337929755 100.45385727923679 122.25697970575442 H 0.0 **** 0.06
31860 H 110.72495920085206 100.40440100267347 123.86329186088153 H 0.0 **** 0.06
31861 C 172.87345707096347 185.2528457994769 123.44752491807066 C 0.0 **** -0.24
31862 H 172.5081549497071 186.2719553116387 123.57263621129849 H 0.0 **** 0.06
31863 H 173.77072901176285 185.26218127204834 122.82894704140634 H 0.0 **** 0.06
31864 H 172.1057375827004 184.64737562742363 122.96538038791127 H 0.0 **** 0.06
31865 H 173.11018324967907 184.82877807813168 124.4240590938139 H 0.0 **** 0.06
31866 C 132.88800834924496 125.15085825175768 167.67844266260698 C 0.0 **** -0.24
31867 H 132.7953382868185 125.94361184245278 166.93608514285222 H 0.0 **** 0.06
31868 H 133.57046801529322 124.38586103043613 167.30870257986135 H 0.0 **** 0.06
31869 H 131.90881661031483 124.7079314727041 167.85936828599478 H 0.0 **** 0.06
31870 H 133.27635229417712 125.5665974826795 168.60772869802855 H 0.0 **** 0.06
31871 C 149.56282702456747 69.8711252122248 70.36944197146568 C 0.0 **** -0.24
31872 H 149.97440411351948 70.53759190152614 69.61084250227748 H 0.0 **** 0.06
31873 H 149.3946625374249 70.42988811784157 71.29063924917949 H 0.0 **** 0.06
31874 H 150.26473849707895 69.0595643483335 70.55918104019656 H 0.0 **** 0.06
31875 H 148.61681047991715 69.45922272238104 70.01592146208299 H 0.0 **** 0.06
31876 C 114.89022163703584 86.43293199166663 6.65753583075562 C 0.0 **** -0.24
31877 H 114.93086645022345 85.91019159109024 7.613033162200452 H 0.0 **** 0.06
31878 H 113.89406369902878 86.32418296154594 6.2268309119522485 H 0.0 **** 0.06
31879 H 115.62907930821967 86.00806817504039 5.9791762441525975 H 0.0 **** 0.06
31880 H 115.10530817951724 87.49011796546321 6.813520705889971 H 0.0 **** 0.06
31881 C 194.19012644869701 2.029378162697121 96.1632900837933 C 0.0 **** -0.24
31882 H 194.85359333942864 1.3000184222362705 95.69709724147913 H 0.0 **** 0.06
31883 H 193.16336366031703 1.6661113559097132 96.11727823136732 H 0.0 **** 0.06
31884 H 194.2653731216587 2.979208467848423 95.6343893364151 H 0.0 **** 0.06
31885 H 194.48040714260435 2.16874975892307 97.20493655572352 H 0.0 **** 0.06
31886 C 3.200307918695337 169.08014905407367 47.060461372222676 C 0.0 **** -0.24
31887 H 3.9644996200153813 168.6654592937653 47.7178646954477 H 0.0 **** 0.06
31888 H 3.406115035094686 170.13634728100757 46.885523018760125 H 0.0 **** 0.06
31889 H 2.22278795201742 168.97288412727306 47.529066324167786 H 0.0 **** 0.06
31890 H 3.2093901271521332 168.54579964839021 46.11098894660148 H 0.0 **** 0.06
31891 C 72.68448211985014 75.70352123696736 196.172466191702 C 0.0 **** -0.24
31892 H 72.45291939543266 74.63863656337995 196.12911819601666 H 0.0 **** 0.06
31893 H 72.29333349443047 76.1229227924568 197.09933067350062 H 0.0 **** 0.06
31894 H 72.2261980705773 76.2091967844249 195.32222877500476 H 0.0 **** 0.06
31895 H 73.76494756047595 75.84141115065863 196.13816641473005 H 0.0 **** 0.06
31896 C 168.50893933830363 36.7951153070488 20.287952284526483 C 0.0 **** -0.24
31897 H 168.13349498936392 36.54750760342668 19.29546367956081 H 0.0 **** 0.06
31898 H 167.71195193467776 37.254096996812166 20.873770165303014 H 0.0 **** 0.06
31899 H 169.34159660693032 37.49195375202103 20.198282267900098 H 0.0 **** 0.06
31900 H 168.84852409327692 35.885963192313454 20.785332756481893 H 0.0 **** 0.06
31901 C 75.16345760320773 44.567193073851 75.40039541757345 C 0.0 **** -0.24
31902 H 75.72812969403809 43.69679166125414 75.73254969578282 H 0.0 **** 0.06
31903 H 74.11914888423836 44.455564739536214 75.69194660610191 H 0.0 **** 0.06
31904 H 75.23003161249726 44.651652869256 74.3157364271676 H 0.0 **** 0.06
31905 H 75.5760873636982 45.46565197836864 75.86033778377683 H 0.0 **** 0.06
31906 C 72.86251850682723 20.901242224189787 132.9836495269344 C 0.0 **** -0.24
31907 H 72.5307484097238 21.702356978203056 132.3239955175688 H 0.0 **** 0.06
31908 H 73.94276315256056 20.78209665585979 132.89496728288805 H 0.0 **** 0.06
31909 H 72.37021019751955 19.97022532872063 132.70031971894076 H 0.0 **** 0.06
31910 H 72.6067756681398 21.149118164322317 134.01320660339917 H 0.0 **** 0.06
31911 C 41.03702194330137 101.73022218817312 55.829174926987776 C 0.0 **** -0.24
31912 H 41.45840518931311 100.73322153876825 55.699596560447105 H 0.0 **** 0.06
31913 H 41.84170124468744 102.46574630461993 55.836868323897846 H 0.0 **** 0.06
31914 H 40.493118324159525 101.77500439821517 56.7719310233166 H 0.0 **** 0.06
31915 H 40.355290771892584 101.94570326925947 55.005593585742076 H 0.0 **** 0.06
31916 C 101.43559759737067 185.66274039427242 32.31789802198898 C 0.0 **** -0.24
31917 H 102.03073815127033 185.1302968933582 33.061011311304924 H 0.0 **** 0.06
31918 H 101.91657165467547 186.61220998889326 32.081273545372085 H 0.0 **** 0.06
31919 H 100.43950458207686 185.8489628080352 32.7174221954611 H 0.0 **** 0.06
31920 H 101.35814608941766 185.0589223715172 31.413902593255216 H 0.0 **** 0.06
31921 C 65.06393008375642 38.47855273989177 107.57748561006704 C 0.0 **** -0.24
31922 H 65.82023356315847 38.36026031038864 106.8005688432172 H 0.0 **** 0.06
31923 H 65.23658845921477 37.745091540362125 108.36540086374336 H 0.0 **** 0.06
31924 H 64.07405980948249 38.324727251421365 107.14707736701405 H 0.0 **** 0.06
31925 H 65.1269012070677 39.48331227582318 107.99487701715907 H 0.0 **** 0.06
31926 C 74.34793717945263 0.16998163285444434 119.73415387395363 C 0.0 **** -0.24
31927 H 73.93907922158547 0.3607555585541036 118.7414569506945 H 0.0 **** 0.06
31928 H 74.89132522306346 -0.7750121219413586 119.72708812586765 H 0.0 **** 0.06
31929 H 73.53350683643083 0.11491949293426273 120.45682604711047 H 0.0 **** 0.06
31930 H 75.02529199538515 0.9780445784215885 120.0102270694646 H 0.0 **** 0.06
31931 C 18.862480397437594 198.81880863287307 169.79511959488113 C 0.0 **** -0.24
31932 H 19.3768383053644 198.56048521817388 170.72145844558955 H 0.0 **** 0.06
31933 H 19.018556629797843 199.87590746870978 169.57692708376103 H 0.0 **** 0.06
31934 H 17.79653453827143 198.6231266905059 169.9056395287875 H 0.0 **** 0.06
31935 H 19.260982408469374 198.21610545470568 168.97866829789106 H 0.0 **** 0.06
31936 C 141.62804843285153 5.9575357852166775 71.05351820249909 C 0.0 **** -0.24
31937 H 141.49587953722812 5.007854009689574 70.53506609113899 H 0.0 **** 0.06
31938 H 141.3840561258342 6.7773494393918625 70.37627079114426 H 0.0 **** 0.06
31939 H 142.66385955292063 6.052259995934769 71.37963065621823 H 0.0 **** 0.06
31940 H 140.9688954113298 5.993815104845453 71.92002888097103 H 0.0 **** 0.06
31941 C 130.68926405105907 78.86418440968126 194.8489971542133 C 0.0 **** -0.24
31942 H 130.16281793716482 78.27741645779851 194.09577702911503 H 0.0 **** 0.06
31943 H 131.68751693838033 79.10844768610303 194.48506677866663 H 0.0 **** 0.06
31944 H 130.76847697707586 78.2854525924039 195.76948967846795 H 0.0 **** 0.06
31945 H 130.13715542195868 79.78269708841057 195.04333233657917 H 0.0 **** 0.06
31946 C 176.56504884645904 94.44678527799829 138.41846837411242 C 0.0 **** -0.24
31947 H 177.33819486997672 95.16990793062928 138.15936312271685 H 0.0 **** 0.06
31948 H 176.6850321309746 94.1440263319115 139.45873791460446 H 0.0 **** 0.06
31949 H 176.65426676849813 93.57339669503506 137.77295833252714 H 0.0 **** 0.06
31950 H 175.58320991411875 94.90059960421456 138.28246999864666 H 0.0 **** 0.06
31951 C 169.04851168913896 156.41431224115652 103.07927330234631 C 0.0 **** -0.24
31952 H 168.17901986458224 156.20492356882866 103.702450673235 H 0.0 **** 0.06
31953 H 168.98444931650812 157.43242710027388 102.69511209737243 H 0.0 **** 0.06
31954 H 169.07490003239351 155.71170956711802 102.24568536806547 H 0.0 **** 0.06
31955 H 169.95547990680666 156.30630590340348 103.67449004852989 H 0.0 **** 0.06
31956 C 86.26633971190213 62.078167143515 20.330048760686196 C 0.0 **** -0.24
31957 H 85.32322298799147 62.352803094485836 20.80358613418788 H 0.0 **** 0.06
31958 H 86.5124118935588 61.046111445326915 20.580594579650707 H 0.0 **** 0.06
31959 H 87.05730441290595 62.73842817891756 20.686191844057362 H 0.0 **** 0.06
31960 H 86.17092777847057 62.17658345953777 19.248341549450018 H 0.0 **** 0.06
31961 C 39.005564471212494 85.53731361855785 99.19721156152096 C 0.0 **** -0.24
31962 H 39.88962714372124 85.29732708345125 98.6065819531799 H 0.0 **** 0.06
31963 H 38.65181158854642 86.53379403085512 98.93247703348732 H 0.0 **** 0.06
31964 H 39.25868236387578 85.50988711066339 100.25728647006954 H 0.0 **** 0.06
31965 H 38.22275209422003 84.80745803303967 98.9924891304666 H 0.0 **** 0.06
31966 C 106.67930962989146 158.35069113231532 0.6233187791916066 C 0.0 **** -0.24
31967 H 107.76628007431907 158.27074731043575 0.6600603814553665 H 0.0 **** 0.06
31968 H 106.27465972760615 157.53594604775776 0.023129159895489693 H 0.0 **** 0.06
31969 H 106.4011761523459 159.30541742554325 0.17621792900814626 H 0.0 **** 0.06
31970 H 106.27740851207744 158.29253563770155 1.6343504752508125 H 0.0 **** 0.06
31971 C 111.5435012266997 142.83606635398598 106.1978121954017 C 0.0 **** -0.24
31972 H 111.94280464995254 142.3869864373878 107.1077812662389 H 0.0 **** 0.06
31973 H 112.03912986975678 143.78955300482932 106.01558394624703 H 0.0 **** 0.06
31974 H 110.47243774784215 142.9981342909559 106.31307129780015 H 0.0 **** 0.06
31975 H 111.72188086663436 142.1676298625964 105.35512360678305 H 0.0 **** 0.06
31976 C 65.99349507993719 21.049650251332395 147.7180555302111 C 0.0 **** -0.24
31977 H 65.91093558120241 22.110477982148552 147.4802464671157 H 0.0 **** 0.06
31978 H 65.794850360537 20.46005389331063 146.82313760695868 H 0.0 **** 0.06
31979 H 65.26820567458185 20.793863877508585 148.49039696325474 H 0.0 **** 0.06
31980 H 66.99995404557643 20.836355941147815 148.0790521847041 H 0.0 **** 0.06
31981 C 164.8029616478324 8.401268780897794 122.64345532750895 C 0.0 **** -0.24
31982 H 165.85004132534442 8.4308026430609 122.34331441788916 H 0.0 **** 0.06
31983 H 164.2348695840447 7.813516162315189 121.92208513227632 H 0.0 **** 0.06
31984 H 164.4062935824994 9.416108268608525 122.678824112738 H 0.0 **** 0.06
31985 H 164.72064209944114 7.944648049606613 123.62959764713219 H 0.0 **** 0.06
31986 C 48.487588360065786 33.583557414715074 35.7567038773669 C 0.0 **** -0.24
31987 H 48.180159252843396 32.66092500755559 36.24850003162868 H 0.0 **** 0.06
31988 H 48.979445865580146 33.34433131846734 34.81255462812817 H 0.0 **** 0.06
31989 H 49.18021210502789 34.12447167467161 36.400680406649826 H 0.0 **** 0.06
31990 H 47.611166706951906 34.2016136615845 35.5635763833165 H 0.0 **** 0.06
31991 C 74.03822115209294 53.59128739248 68.28295234106693 C 0.0 **** -0.24
31992 H 74.39978281540118 54.09542769170585 69.17963089119678 H 0.0 **** 0.06
31993 H 74.03919627384289 52.51295710058028 68.44706982419197 H 0.0 **** 0.06
31994 H 74.69100925005023 53.831264600049096 67.44360597396161 H 0.0 **** 0.06
31995 H 73.02380306042085 53.92506262357881 68.06291205095022 H 0.0 **** 0.06
31996 C 75.93778439632962 59.060974251760854 94.91880542407733 C 0.0 **** -0.24
31997 H 76.7163250336805 59.476556362749534 95.55763375949869 H 0.0 **** 0.06
31998 H 75.65518393307548 59.7966481427035 94.16537686055023 H 0.0 **** 0.06
31999 H 75.06706722007038 58.809597585780125 95.52501336592769 H 0.0 **** 0.06
32000 H 76.31010145618427 58.16228639899157 94.42843433728586 H 0.0 **** 0.06
32001 C 121.30658878235153 115.29344510786183 76.30087180777548 C 0.0 **** -0.24
32002 H 121.6112425081792 114.27590346695709 76.54350687640795 H 0.0 **** 0.06
32003 H 120.2369594448401 115.40460834539886 76.47826260123321 H 0.0 **** 0.06
32004 H 121.5245666025576 115.4972444038531 75.25198371878099 H 0.0 **** 0.06
32005 H 121.85443862690698 115.99662463787084 76.92835071871218 H 0.0 **** 0.06
32006 C 139.98406011088844 152.30395196901807 28.271870490516363 C 0.0 **** -0.24
32007 H 140.7862790435986 153.0379746636042 28.207069900407916 H 0.0 **** 0.06
32008 H 139.02288013845921 152.81791259111475 28.292804425130726 H 0.0 **** 0.06
32009 H 140.10190746160904 151.71574734173302 29.18168310338345 H 0.0 **** 0.06
32010 H 140.0249056888542 151.64487204101246 27.404069826843752 H 0.0 **** 0.06
32011 C 166.20469333735895 155.2443418761428 52.98762857844633 C 0.0 **** -0.24
32012 H 166.86146138202218 156.1031260091819 52.85613261504682 H 0.0 **** 0.06
32013 H 165.53558280996765 155.42417233500345 53.82952275608778 H 0.0 **** 0.06
32014 H 166.80479343837987 154.35487138238693 53.183832115515884 H 0.0 **** 0.06
32015 H 165.6175522260216 155.09467682245122 52.08255933793134 H 0.0 **** 0.06
32016 C 7.186329667418647 197.26976977690168 126.30963116932625 C 0.0 **** -0.24
32017 H 7.758969789519654 196.5776442119232 125.69126865294382 H 0.0 **** 0.06
32018 H 6.600427313338059 197.9296832506538 125.66983720170128 H 0.0 **** 0.06
32019 H 7.868877764578372 197.86349161601547 126.91697056084516 H 0.0 **** 0.06
32020 H 6.51737691145712 196.70610987096364 126.96096398139971 H 0.0 **** 0.06
32021 C 114.90015822410507 57.307750671836175 41.80066349310013 C 0.0 **** -0.24
32022 H 115.83290974010094 56.9619720422279 41.35544509199582 H 0.0 **** 0.06
32023 H 114.85880058239721 58.396271561463266 41.7587647356892 H 0.0 **** 0.06
32024 H 114.8513855518037 56.981833790599126 42.839795872377096 H 0.0 **** 0.06
32025 H 114.0572815568317 56.89044536515536 41.249487574617504 H 0.0 **** 0.06
32026 C 62.40688120534479 83.96738289984557 181.09997539218082 C 0.0 **** -0.24
32027 H 61.73215040073518 84.64823761724645 181.61906775517411 H 0.0 **** 0.06
32028 H 63.40030169386928 84.03254179390649 181.54556687322835 H 0.0 **** 0.06
32029 H 62.46127250651719 84.24270222115655 180.0469267082749 H 0.0 **** 0.06
32030 H 62.0335393330577 82.94768547805504 181.19084167887658 H 0.0 **** 0.06
32031 C 144.1240396627675 177.24979393189133 104.63492298209883 C 0.0 **** -0.24
32032 H 144.28325492666042 176.27934085027732 105.10389736952021 H 0.0 **** 0.06
32033 H 144.66542089106338 177.29000962372336 103.68952108099052 H 0.0 **** 0.06
32034 H 144.48791853503522 178.036786797823 105.29614465188303 H 0.0 **** 0.06
32035 H 143.06006531658824 177.39463658356973 104.4505704513872 H 0.0 **** 0.06
32036 C 38.00895476098013 117.08913310229974 107.54368894222398 C 0.0 **** -0.24
32037 H 38.54496905811024 116.9369261578625 106.60854385505036 H 0.0 **** 0.06
32038 H 38.39553551882588 116.4056258949114 108.30038962391205 H 0.0 **** 0.06
32039 H 36.94708305068346 116.8965183894172 107.38903210872954 H 0.0 **** 0.06
32040 H 38.14565986906068 118.11748095301729 107.87833516627583 H 0.0 **** 0.06
32041 C 24.27804644766114 125.82553626118613 11.069596495406472 C 0.0 **** -0.24
32042 H 23.729239124423486 126.04811709174919 11.985194659824572 H 0.0 **** 0.06
32043 H 25.13784621980986 125.19744485131218 11.30629092126 H 0.0 **** 0.06
32044 H 24.621466901532216 126.7557485910861 10.61716076318379 H 0.0 **** 0.06
32045 H 23.62501175724671 125.30113976437178 10.37290311806774 H 0.0 **** 0.06
32046 C 4.72892776985168 58.12566325753079 14.269026724354063 C 0.0 **** -0.24
32047 H 5.613761894199627 57.715237319040924 14.755612590055676 H 0.0 **** 0.06
32048 H 4.431669052080906 57.47476093235058 13.447040050863258 H 0.0 **** 0.06
32049 H 4.9553060297766365 59.11969678352517 13.883200445655753 H 0.0 **** 0.06
32050 H 3.915666961577017 58.19426040029683 14.992209269395914 H 0.0 **** 0.06
32051 C 38.815834513875416 164.18663564505238 48.50503192016538 C 0.0 **** -0.24
32052 H 38.302910900812236 164.63893283013974 47.65751126588236 H 0.0 **** 0.06
32053 H 39.63206953174165 164.83456508501772 48.82484362059236 H 0.0 **** 0.06
32054 H 39.21511374580106 163.2150152458324 48.212941879419304 H 0.0 **** 0.06
32055 H 38.11188239666012 164.05673123325835 49.32806532147157 H 0.0 **** 0.06
32056 C 165.17284170127633 152.67007119711076 128.8278397967691 C 0.0 **** -0.24
32057 H 165.19524505125906 153.30122322567206 129.71541675548582 H 0.0 **** 0.06
32058 H 164.13764132433928 152.48819979852738 128.53668745480869 H 0.0 **** 0.06
32059 H 165.66089298480185 151.71984344660035 129.0452515155559 H 0.0 **** 0.06
32060 H 165.6976900826761 153.16853369422458 128.01265576509988 H 0.0 **** 0.06
32061 C 70.55630971991621 47.041333657756866 17.391000100709647 C 0.0 **** -0.24
32062 H 69.93205781680012 46.78643073067269 16.53546009030748 H 0.0 **** 0.06
32063 H 70.63011089544568 48.12526340731591 17.476442227821195 H 0.0 **** 0.06
32064 H 71.55154880234886 46.618543275216894 17.253616899066287 H 0.0 **** 0.06
32065 H 70.11145255381638 46.63427949785614 18.29963298523643 H 0.0 **** 0.06
32066 C 90.34587259582901 47.24539995871257 3.6370436365378964 C 0.0 **** -0.24
32067 H 91.00606075341943 47.97397139542798 3.1668277996255156 H 0.0 **** 0.06
32068 H 90.89037966931471 46.71353316739979 4.417984396214521 H 0.0 **** 0.06
32069 H 89.99779285002501 46.534375262096546 2.88749239531451 H 0.0 **** 0.06
32070 H 89.4903509480456 47.75904287800256 4.075282541055394 H 0.0 **** 0.06
32071 C 140.17705175018952 195.74438091710567 170.79710230298204 C 0.0 **** -0.24
32072 H 139.71161585738668 195.944815230108 169.83241884017082 H 0.0 **** 0.06
32073 H 139.65353519853943 196.29942047611917 171.57534402883093 H 0.0 **** 0.06
32074 H 141.22122767677075 196.0566656739184 170.7679550952159 H 0.0 **** 0.06
32075 H 140.1231341033625 194.67692444921403 171.01224009788234 H 0.0 **** 0.06
32076 C 52.81216782408217 158.3818127180167 167.41141591771975 C 0.0 **** -0.24
32077 H 53.40759642086556 159.00084772354563 166.74007387546953 H 0.0 **** 0.06
32078 H 53.41302271934177 157.54153827353394 167.75824573115398 H 0.0 **** 0.06
32079 H 51.936576667070796 158.00907175694562 166.88076069600407 H 0.0 **** 0.06
32080 H 52.492383975444056 158.97753672873841 168.2669501933848 H 0.0 **** 0.06
32081 C 118.66138983211158 76.70735541130304 70.88251723874625 C 0.0 **** -0.24
32082 H 118.82505815589477 75.63210538639613 70.81391886843386 H 0.0 **** 0.06
32083 H 118.72478039163556 77.01845322468128 71.92555438252766 H 0.0 **** 0.06
32084 H 117.67396182747348 76.95010049842261 70.4895662926736 H 0.0 **** 0.06
32085 H 119.4218161600489 77.22776579636214 70.30097231766082 H 0.0 **** 0.06
32086 C 198.458672097599 27.73580365653217 175.29107929999768 C 0.0 **** -0.24
32087 H 198.11853528826805 27.87138412333009 174.26425040584235 H 0.0 **** 0.06
32088 H 199.38698735542906 28.28639264485726 175.4412732306562 H 0.0 **** 0.06
32089 H 198.6290935638267 26.675391944079678 175.4787871056299 H 0.0 **** 0.06
32090 H 197.69891872023828 28.1090642510202 175.97761772703765 H 0.0 **** 0.06
32091 C 71.42755775617161 51.26570973907434 198.81579424476692 C 0.0 **** -0.24
32092 H 71.41615292431374 50.49087649303674 198.04924675585818 H 0.0 **** 0.06
32093 H 72.13773947960863 52.04329732665849 198.53509843266536 H 0.0 **** 0.06
32094 H 71.72465775756086 50.82923986896738 199.76942799308532 H 0.0 **** 0.06
32095 H 70.43157553029226 51.69887310464125 198.90857672876527 H 0.0 **** 0.06
32096 C 25.98307412534463 99.54109089160661 15.360339211138395 C 0.0 **** -0.24
32097 H 26.723909780094985 99.87254791833888 14.633136046986579 H 0.0 **** 0.06
32098 H 26.359989370419996 98.66512510774538 15.888004369727284 H 0.0 **** 0.06
32099 H 25.057329518647066 99.28571717855706 14.844269562935267 H 0.0 **** 0.06
32100 H 25.791308058967047 100.34158377676306 16.074343821076823 H 0.0 **** 0.06
32101 C 7.737841092881773 79.38343072861144 197.28080778784533 C 0.0 **** -0.24
32102 H 8.699897806211077 78.87270438567808 197.33648718625494 H 0.0 **** 0.06
32103 H 6.933683261736789 78.65539166283156 197.39324003700358 H 0.0 **** 0.06
32104 H 7.646107150909067 79.88005440002053 196.31505549707666 H 0.0 **** 0.06
32105 H 7.673264709044751 80.1243180288798 198.0774981761058 H 0.0 **** 0.06
32106 C 62.87798415836659 18.25301766501076 75.87110078699959 C 0.0 **** -0.24
32107 H 63.33799283773226 17.351062851449285 76.27435902172292 H 0.0 **** 0.06
32108 H 63.40631986479923 19.12915961315366 76.24607856574812 H 0.0 **** 0.06
32109 H 61.8337457364658 18.297061648693273 76.18067134493688 H 0.0 **** 0.06
32110 H 62.9337311914299 18.233641996558276 74.78247663488753 H 0.0 **** 0.06
32111 C 23.811383138549616 184.0457671760056 11.150722563555291 C 0.0 **** -0.24
32112 H 24.509022785577287 184.0485276495759 11.988277927275021 H 0.0 **** 0.06
32113 H 22.847159232293393 183.66228322077626 11.482725535665821 H 0.0 **** 0.06
32114 H 24.20143961147687 183.4107981647973 10.356129614352653 H 0.0 **** 0.06
32115 H 23.690238708122166 185.06285893536065 10.777031411163989 H 0.0 **** 0.06
32116 C 153.62085844543435 4.255831984184795 154.51270860466315 C 0.0 **** -0.24
32117 H 154.15257695313954 4.631570807724472 153.63791979001013 H 0.0 **** 0.06
32118 H 152.8264243549375 4.952981949432626 154.78132377547058 H 0.0 **** 0.06
32119 H 154.31637255194104 4.158589750374745 155.34601211893062 H 0.0 **** 0.06
32120 H 153.18906000175053 3.281711081353251 154.2839440002689 H 0.0 **** 0.06
32121 C 6.575111273272526 110.04374307538134 9.412185537883374 C 0.0 **** -0.24
32122 H 5.519753598801273 110.05392392823259 9.13678356496871 H 0.0 **** 0.06
32123 H 6.752718256358982 109.24848301877216 10.136353260672138 H 0.0 **** 0.06
32124 H 6.844863036640859 111.0035282422156 9.852782974930506 H 0.0 **** 0.06
32125 H 7.180716021583599 109.86916741772433 8.523323403590496 H 0.0 **** 0.06
32126 C 128.5291358461783 164.00563362253777 50.75512348845706 C 0.0 **** -0.24
32127 H 129.00820717180426 164.1175856220284 51.727600783613696 H 0.0 **** 0.06
32128 H 128.59802204736505 164.9446784213523 50.20650410568777 H 0.0 **** 0.06
32129 H 127.48035073065441 163.7422861729978 50.89522917192926 H 0.0 **** 0.06
32130 H 129.02930972019453 163.21798660669793 50.191916644387504 H 0.0 **** 0.06
32131 C 13.267673535674334 157.71320583423767 1.8250943634565715 C 0.0 **** -0.24
32132 H 12.791833892412235 158.33908717591692 2.5795980730364576 H 0.0 **** 0.06
32133 H 12.502219991098109 157.2224018478588 1.2241925446771802 H 0.0 **** 0.06
32134 H 13.88491719837927 156.95930540358967 2.315538165043371 H 0.0 **** 0.06
32135 H 13.893746449258856 158.33271231575526 1.1822482480293743 H 0.0 **** 0.06
32136 C 34.86825174904841 170.75839419474852 30.122543783731317 C 0.0 **** -0.24
32137 H 35.682962567488815 170.52557010947407 30.80752180491612 H 0.0 **** 0.06
32138 H 35.19524253315598 170.58433374549895 29.09661166842608 H 0.0 **** 0.06
32139 H 34.58266367966483 171.80359086514068 30.240895188589207 H 0.0 **** 0.06
32140 H 34.01295591367288 170.12061965692337 30.344940608263812 H 0.0 **** 0.06
32141 C 162.72109773201862 189.5006697888054 110.55452909265205 C 0.0 **** -0.24
32142 H 161.70631664480544 189.10655529599828 110.52598532288516 H 0.0 **** 0.06
32143 H 162.80710943739786 190.22519275591256 111.36530167062489 H 0.0 **** 0.06
32144 H 162.94862353215973 189.98799387414206 109.60602767153193 H 0.0 **** 0.06
32145 H 163.42406670448605 188.68435453212862 110.72068175942036 H 0.0 **** 0.06
32146 C 24.197492371631625 59.711356527701696 55.45350860670793 C 0.0 **** -0.24
32147 H 24.585907291890805 60.39503030976374 56.207709289548035 H 0.0 **** 0.06
32148 H 23.37654440840089 60.19024762266031 54.91771434381995 H 0.0 **** 0.06
32149 H 23.83550533589336 58.804331323133795 55.93729093326682 H 0.0 **** 0.06
32150 H 24.99102809400938 59.45669463752455 54.750197093195766 H 0.0 **** 0.06
32151 C 188.3346138388856 158.91971189428898 28.652362303986763 C 0.0 **** -0.24
32152 H 187.57012181494073 158.14718610477647 28.56796124986994 H 0.0 **** 0.06
32153 H 188.7629963028728 159.11622187291442 27.66979832975619 H 0.0 **** 0.06
32154 H 189.11902486216997 158.5814123041155 29.330229872926964 H 0.0 **** 0.06
32155 H 187.88517295856002 159.832185327027 29.043971559441758 H 0.0 **** 0.06
32156 C 59.11177216898079 23.67708049066644 189.68448743526085 C 0.0 **** -0.24
32157 H 59.358257422658255 23.264565786694703 188.70615655052205 H 0.0 **** 0.06
32158 H 59.88103838954899 24.390093205314173 189.98198709091594 H 0.0 **** 0.06
32159 H 59.059970356106774 22.871020250399994 190.4164513315198 H 0.0 **** 0.06
32160 H 58.14723422080688 24.18295757665436 189.63210784093408 H 0.0 **** 0.06
32161 C 109.74211228083294 189.00275485568773 124.93186205724481 C 0.0 **** -0.24
32162 H 110.20525354367084 189.39440405843817 125.8380699674849 H 0.0 **** 0.06
32163 H 109.8281683638015 187.91623516500377 124.92046057590139 H 0.0 **** 0.06
32164 H 110.24625699050773 189.41639327666098 124.05872916913128 H 0.0 **** 0.06
32165 H 108.689875331356 189.28449764114495 124.91090820428977 H 0.0 **** 0.06
32166 C 138.30931799193692 81.29230361193285 131.62894417114597 C 0.0 **** -0.24
32167 H 139.06097536025715 81.91374900414209 131.1406957310984 H 0.0 **** 0.06
32168 H 137.5907314509492 80.9430551733771 130.88774946990418 H 0.0 **** 0.06
32169 H 137.79287997474043 81.87756725125809 132.389121721328 H 0.0 **** 0.06
32170 H 138.7947508693146 80.43604846915918 132.09639867985558 H 0.0 **** 0.06
32171 C 91.88431008624588 138.43816126658993 129.37714605633383 C 0.0 **** -0.24
32172 H 90.8926273410795 137.9875374420152 129.35571805559934 H 0.0 **** 0.06
32173 H 91.8906541642383 139.33286340054516 128.75343654245066 H 0.0 **** 0.06
32174 H 92.61598835416689 137.72596295913937 128.997567165629 H 0.0 **** 0.06
32175 H 92.13767058060142 138.708431514957 130.40239780154505 H 0.0 **** 0.06
32176 C 64.63371696354534 157.47834413579994 118.6760533112595 C 0.0 **** -0.24
32177 H 64.33460759934707 158.15427013527668 119.47628345548972 H 0.0 **** 0.06
32178 H 65.27277796474368 158.0104389081882 117.97091227130221 H 0.0 **** 0.06
32179 H 63.74654404120997 157.1125911772258 118.15790691498435 H 0.0 **** 0.06
32180 H 65.1809382488807 156.6360763225091 119.09911060326183 H 0.0 **** 0.06
32181 C 50.40277229169209 27.651163695577225 171.977065549357 C 0.0 **** -0.24
32182 H 51.36787833004914 27.148196956624588 171.9253794351658 H 0.0 **** 0.06
32183 H 50.34468016438643 28.408276604855274 171.1950546604252 H 0.0 **** 0.06
32184 H 50.29258213622427 28.126530783367684 172.95192192419753 H 0.0 **** 0.06
32185 H 49.605028532203335 26.921938218224454 171.83734521895124 H 0.0 **** 0.06
32186 C 9.8293098189232 62.29884701352404 150.04345179161007 C 0.0 **** -0.24
32187 H 9.322578670871884 62.3585411993225 149.08081904423375 H 0.0 **** 0.06
32188 H 9.091659848743276 62.16504015817581 150.83503434624376 H 0.0 **** 0.06
32189 H 10.387016193363038 63.2196730715598 150.2183651542187 H 0.0 **** 0.06
32190 H 10.517492062927971 61.45360194503006 150.0403446558645 H 0.0 **** 0.06
32191 C 114.57831433706116 139.17505802241658 135.18215638508002 C 0.0 **** -0.24
32192 H 114.99756981542666 138.21692572738186 135.4877607234253 H 0.0 **** 0.06
32193 H 115.38658808823638 139.88029773008492 134.98628601881603 H 0.0 **** 0.06
32194 H 113.9424408439547 139.5629626016264 135.97818504562287 H 0.0 **** 0.06
32195 H 113.98551669096531 139.0404475996371 134.27712507170577 H 0.0 **** 0.06
32196 C 94.1621493264002 50.73792167409087 66.67708717580052 C 0.0 **** -0.24
32197 H 94.28946735769227 49.65801925846648 66.7514885894281 H 0.0 **** 0.06
32198 H 94.27356410566011 51.18522854467159 67.66615595507952 H 0.0 **** 0.06
32199 H 93.16906504679355 50.96009844442571 66.28696312937728 H 0.0 **** 0.06
32200 H 94.91680825212472 51.147035358810115 66.00579099034525 H 0.0 **** 0.06
32201 C 9.42321039579496 185.09850843669773 174.42279696030423 C 0.0 **** -0.24
32202 H 8.595703427418393 184.90024582219462 173.74151373145048 H 0.0 **** 0.06
32203 H 9.47545117680422 184.30729142930474 175.17104039767992 H 0.0 **** 0.06
32204 H 9.265020510178445 186.05779497225916 174.91671801585707 H 0.0 **** 0.06
32205 H 10.356888241905992 185.1294491490192 173.85981999106255 H 0.0 **** 0.06
32206 C 63.022759967014025 22.610483939951294 43.690589593419745 C 0.0 **** -0.24
32207 H 62.84865387322435 22.575636783735433 42.61522015793189 H 0.0 **** 0.06
32208 H 62.5741264592819 23.514814656461454 44.102546664265276 H 0.0 **** 0.06
32209 H 64.09592989311497 22.615612830729603 43.88504965999313 H 0.0 **** 0.06
32210 H 62.57232964243502 21.73587148887877 44.159541891488615 H 0.0 **** 0.06
32211 C 123.85565965948248 69.82204810529316 18.9918380426559 C 0.0 **** -0.24
32212 H 123.47918750887024 69.59137742098147 19.988247812993194 H 0.0 **** 0.06
32213 H 123.21582223726955 70.57277267317988 18.527324972139127 H 0.0 **** 0.06
32214 H 123.85323543640277 68.91655382657484 18.38501523661833 H 0.0 **** 0.06
32215 H 124.87277528131304 70.20584145477704 19.067582001525295 H 0.0 **** 0.06
32216 C 19.456876901850052 134.93327242832794 92.65048188977738 C 0.0 **** -0.24
32217 H 19.605965147370128 134.44356694428848 93.61187612613855 H 0.0 **** 0.06
32218 H 18.45256081512629 135.35620505696147 92.61053324909449 H 0.0 **** 0.06
32219 H 19.576504471704553 134.20398459701488 91.8490293369004 H 0.0 **** 0.06
32220 H 20.19192356078686 135.72870459632207 92.52994249624066 H 0.0 **** 0.06
32221 C 35.30724091923423 135.65718710519545 144.02890448025187 C 0.0 **** -0.24
32222 H 36.182698476628474 135.67705154085283 143.37986661459934 H 0.0 **** 0.06
32223 H 35.48901489653551 136.28256096852616 144.90385446082269 H 0.0 **** 0.06
32224 H 35.11531266204008 134.63276691318086 144.34822171988253 H 0.0 **** 0.06
32225 H 34.44291874012248 136.03616638619206 143.48467334288836 H 0.0 **** 0.06
32226 C 54.191610021698835 65.41151650924803 64.32560806235493 C 0.0 **** -0.24
32227 H 53.94236551215728 64.47994739611613 63.81718023894575 H 0.0 **** 0.06
32228 H 53.34597681786835 66.09723393746901 64.26227717133322 H 0.0 **** 0.06
32229 H 55.062097721010915 65.86263517501038 63.849066561108955 H 0.0 **** 0.06
32230 H 54.41537265921521 65.20546347646678 65.37191112277505 H 0.0 **** 0.06
32231 C 108.21589760018037 26.884190077124813 66.73515459608788 C 0.0 **** -0.24
32232 H 108.700404681024 26.87538125477576 67.71139789091717 H 0.0 **** 0.06
32233 H 108.94396009959542 27.153872088308674 65.97027925565268 H 0.0 **** 0.06
32234 H 107.4050553182177 27.612183339443774 66.73918847244101 H 0.0 **** 0.06
32235 H 107.81402187817173 25.893070567010184 66.52070241023279 H 0.0 **** 0.06
32236 C 8.988563694655774 79.04575040937524 60.29305671171363 C 0.0 **** -0.24
32237 H 8.613856449368164 78.26116441969575 60.95171597448706 H 0.0 **** 0.06
32238 H 9.08892957968812 79.97379460060654 60.85639618600885 H 0.0 **** 0.06
32239 H 8.29074925993995 79.19314853026873 59.46983410908558 H 0.0 **** 0.06
32240 H 9.961959139099982 78.7536306872899 59.89757715021585 H 0.0 **** 0.06
32241 C 126.51595742255526 110.56567124730134 102.83723589388453 C 0.0 **** -0.24
32242 H 125.76518511589268 109.91891939918855 103.28989431444651 H 0.0 **** 0.06
32243 H 127.2398990603385 110.86668989812736 103.59445842326585 H 0.0 **** 0.06
32244 H 126.03122614673197 111.45159598930258 102.42540018281903 H 0.0 **** 0.06
32245 H 127.02614405862715 110.02680259821275 102.03978945363681 H 0.0 **** 0.06
32246 C 157.29418775139953 145.79776138866185 59.86055514585189 C 0.0 **** -0.24
32247 H 157.05453403139978 145.41385630375305 60.85142477955296 H 0.0 **** 0.06
32248 H 158.01459755121672 145.1355087123465 59.3788188812955 H 0.0 **** 0.06
32249 H 157.7222349740933 146.79567544769395 59.95145493325117 H 0.0 **** 0.06
32250 H 156.3862244131723 145.84570395455967 59.26007054877934 H 0.0 **** 0.06
32251 C 73.191053793644 15.960883351820883 138.79473324304536 C 0.0 **** -0.24
32252 H 73.71235913418732 16.91429124049523 138.88473789938317 H 0.0 **** 0.06
32253 H 73.59756487289485 15.403233347863534 137.95176534914702 H 0.0 **** 0.06
32254 H 72.12865846945725 16.142573217152318 138.63377784705966 H 0.0 **** 0.06
32255 H 73.32680982064515 15.386565819639884 139.7110636157882 H 0.0 **** 0.06
32256 C 73.18188339533685 92.83374309357737 129.98523840481974 C 0.0 **** -0.24
32257 H 73.97771667089158 93.5605107419756 129.8214767772572 H 0.0 **** 0.06
32258 H 72.21954442503339 93.34534921701382 129.99333523872022 H 0.0 **** 0.06
32259 H 73.336911657267 92.33472565029317 130.9412344756233 H 0.0 **** 0.06
32260 H 73.19465934857111 92.09559593997523 129.18354630118023 H 0.0 **** 0.06
32261 C 128.14566453848414 170.30575255618734 169.41582055076472 C 0.0 **** -0.24
32262 H 128.73536020880104 171.21482176065234 169.52956965311282 H 0.0 **** 0.06
32263 H 128.75358921186378 169.536572046252 168.9381484408143 H 0.0 **** 0.06
32264 H 127.27208772428929 170.51459626997635 168.79855437798489 H 0.0 **** 0.06
32265 H 127.82334131362325 169.95721936459807 170.39704021865393 H 0.0 **** 0.06
32266 C 46.72216013959877 73.14601917619927 94.37405385529689 C 0.0 **** -0.24
32267 H 47.52549837211933 72.59968605374104 94.86926139418603 H 0.0 **** 0.06
32268 H 45.876029868970704 73.24299907177056 95.05486452161045 H 0.0 **** 0.06
32269 H 46.41148984217847 72.60383499422466 93.48135460801777 H 0.0 **** 0.06
32270 H 47.07766341157094 74.13713313018741 94.09202151856866 H 0.0 **** 0.06
32271 C 27.915605512403147 191.6794078736378 165.77661638959597 C 0.0 **** -0.24
32272 H 28.70381054917206 191.82670015922074 165.0382205019673 H 0.0 **** 0.06
32273 H 28.31040001010183 191.87892330525565 166.77373956094544 H 0.0 **** 0.06
32274 H 27.558282726467098 190.65119913327834 165.72530476546302 H 0.0 **** 0.06
32275 H 27.091801375516354 192.3617621517486 165.56843604791183 H 0.0 **** 0.06
32276 C 59.90504709189065 93.01085551215994 58.936914960445705 C 0.0 **** -0.24
32277 H 60.884320144367905 93.02360962929919 58.457819650710064 H 0.0 **** 0.06
32278 H 59.16471396428727 92.61772527652653 58.24071373674934 H 0.0 **** 0.06
32279 H 59.62912828966262 94.02547514176487 59.22515880925573 H 0.0 **** 0.06
32280 H 59.943021720756605 92.37853996480311 59.824507592077566 H 0.0 **** 0.06
32281 C 131.81743060478215 2.340945549299448 0.6790082706397698 C 0.0 **** -0.24
32282 H 131.57089291231873 3.027047527182674 1.4894568684506453 H 0.0 **** 0.06
32283 H 130.89797213466494 1.9753740028723143 0.22112808822973307 H 0.0 **** 0.06
32284 H 132.38545336376086 1.498967466517172 1.0755606019631117 H 0.0 **** 0.06
32285 H 132.41479336825216 2.8613936309898236 -0.06931999743766681 H 0.0 **** 0.06
32286 C 82.53868410319205 29.136932073493824 161.51537276340784 C 0.0 **** -0.24
32287 H 81.96859962747442 28.372138583111038 162.04101641548894 H 0.0 **** 0.06
32288 H 83.55154392091424 28.774879933023172 161.33525072743345 H 0.0 **** 0.06
32289 H 82.57943244128933 30.041594627778935 162.12228290906833 H 0.0 **** 0.06
32290 H 82.0579283120079 29.360173815865693 160.56340813353432 H 0.0 **** 0.06
32291 C 161.08911356043245 160.02053500151308 171.47523766161123 C 0.0 **** -0.24
32292 H 161.05613598746467 161.06938950165323 171.18181751617172 H 0.0 **** 0.06
32293 H 160.08656917595664 159.6883987034649 171.74717321678995 H 0.0 **** 0.06
32294 H 161.75548840564977 159.9024901766286 172.32903485217622 H 0.0 **** 0.06
32295 H 161.45664102520823 159.42176734246493 170.64108985484157 H 0.0 **** 0.06
32296 C 2.9732529508831647 102.42679749260614 43.67170408058769 C 0.0 **** -0.24
32297 H 3.1135348645208296 103.44793794823366 43.315586317439966 H 0.0 **** 0.06
32298 H 3.882640702583757 102.08777863697202 44.16729948275383 H 0.0 **** 0.06
32299 H 2.7560815580871463 101.77429733018514 42.82550089842948 H 0.0 **** 0.06
32300 H 2.142105818378809 102.39891060104992 44.37575267955248 H 0.0 **** 0.06
32301 C 107.50677847538753 180.14764265476555 85.35760400023926 C 0.0 **** -0.24
32302 H 107.2777069476042 179.08287471680487 85.32525995322067 H 0.0 **** 0.06
32303 H 106.80872038872815 180.64974198447175 86.02822302402686 H 0.0 **** 0.06
32304 H 107.4170505543612 180.5693559124204 84.35679907523993 H 0.0 **** 0.06
32305 H 108.52518935842826 180.28858898708623 85.72090016961448 H 0.0 **** 0.06
32306 C 115.72508451846406 188.76543614386085 188.46834469167578 C 0.0 **** -0.24
32307 H 114.74514754129851 188.29878259113474 188.37047409120063 H 0.0 **** 0.06
32308 H 116.27415799183643 188.28961306444802 189.28060782067223 H 0.0 **** 0.06
32309 H 115.6006319077866 189.82669072259995 188.68519248075586 H 0.0 **** 0.06
32310 H 116.27778026881737 188.647648388022 187.5367127274441 H 0.0 **** 0.06
32311 C 52.33636984830912 29.2291849171458 50.728585994085805 C 0.0 **** -0.24
32312 H 51.46362499484691 29.394052651123445 50.097407956622945 H 0.0 **** 0.06
32313 H 53.06404338075053 30.0224990703704 50.55705299245474 H 0.0 **** 0.06
32314 H 52.78479991152726 28.266541206232205 50.486197437272565 H 0.0 **** 0.06
32315 H 52.032742969160864 29.234673814392792 51.77589315703132 H 0.0 **** 0.06
32316 C 192.41505729439183 135.03572258918118 134.14200651324217 C 0.0 **** -0.24
32317 H 193.1281686356101 135.85825767668015 134.0917281206374 H 0.0 **** 0.06
32318 H 192.6602357522034 134.29577896937752 133.37984009122715 H 0.0 **** 0.06
32319 H 191.4088540076806 135.41661162023908 133.96833681209398 H 0.0 **** 0.06
32320 H 192.46337147573854 134.572810003458 135.1274020429231 H 0.0 **** 0.06
32321 C 57.629592103200764 142.65380988800405 146.10986700713835 C 0.0 **** -0.24
32322 H 58.60264115114353 142.19396854956187 145.93641908491844 H 0.0 **** 0.06
32323 H 57.14941332246241 142.85868053606453 145.15272697010158 H 0.0 **** 0.06
32324 H 57.76108859372107 143.58706803719326 146.6576822934706 H 0.0 **** 0.06
32325 H 57.00602179204134 141.97559442341378 146.6920392541157 H 0.0 **** 0.06
32326 C 161.2216696436421 87.59954662411093 111.70541381639362 C 0.0 **** -0.24
32327 H 161.48153221360025 88.6356934053997 111.48594627785585 H 0.0 **** 0.06
32328 H 161.55676752929844 86.96056349632755 110.88872192810905 H 0.0 **** 0.06
32329 H 160.14109904292206 87.51241802939956 111.81627613856682 H 0.0 **** 0.06
32330 H 161.70743919161362 87.29167762302211 112.63124279774658 H 0.0 **** 0.06
32331 C 89.07052897675308 39.21331709039407 58.75577239178568 C 0.0 **** -0.24
32332 H 88.66310707170223 38.30669408753022 58.307103438812874 H 0.0 **** 0.06
32333 H 88.97228847822007 40.041432583336785 58.05397953515504 H 0.0 **** 0.06
32334 H 90.12349714458381 39.05976416810324 58.99240760590695 H 0.0 **** 0.06
32335 H 88.52280523377084 39.44373712999544 59.66923228478595 H 0.0 **** 0.06
32336 C 171.7366027304243 159.62899620394523 134.0872911214267 C 0.0 **** -0.24
32337 H 171.5932859334774 160.23791234478358 134.98040540877707 H 0.0 **** 0.06
32338 H 171.43420319579474 160.1991488876754 133.20824837756956 H 0.0 **** 0.06
32339 H 171.13111413666687 158.72709882234403 134.16239309058585 H 0.0 **** 0.06
32340 H 172.7879873038814 159.35530023122496 133.99949206712193 H 0.0 **** 0.06
32341 C 153.2842864956798 86.73025080815273 109.90566401671398 C 0.0 **** -0.24
32342 H 152.8089129672987 85.74914321555258 109.94147770183659 H 0.0 **** 0.06
32343 H 153.80300099393065 86.91594182644297 110.84679781315168 H 0.0 **** 0.06
32344 H 152.52365545103214 87.49560883793322 109.75343665514987 H 0.0 **** 0.06
32345 H 153.9987408202594 86.75737154540064 109.08445508399186 H 0.0 **** 0.06
32346 C 191.735741855141 152.9097646829908 148.1540850101138 C 0.0 **** -0.24
32347 H 192.6854806233116 153.44062231423257 148.0997425676682 H 0.0 **** 0.06
32348 H 191.12232600464233 153.17303045648742 147.2919667902321 H 0.0 **** 0.06
32349 H 191.21573022806916 153.1904808750424 149.07050796374267 H 0.0 **** 0.06
32350 H 191.91913245238646 151.83532635589378 148.15544565305493 H 0.0 **** 0.06
32351 C 43.876947764514455 92.72628388046462 107.1359365040538 C 0.0 **** -0.24
32352 H 44.05680821762871 91.65588256677947 107.04194766250248 H 0.0 **** 0.06
32353 H 44.737214857894 93.19802778431588 107.61032546863368 H 0.0 **** 0.06
32354 H 42.988380137720185 92.89337643864528 107.74487355804226 H 0.0 **** 0.06
32355 H 43.725187379146405 93.15752439121923 106.14567486064263 H 0.0 **** 0.06
32356 C 15.223153678414931 67.03366410471912 114.96469288520521 C 0.0 **** -0.24
32357 H 15.78799673749991 66.7539652918836 115.85493196086847 H 0.0 **** 0.06
32358 H 15.147514996177463 68.11945644769023 114.90885872770997 H 0.0 **** 0.06
32359 H 14.223547277715525 66.60136196134128 115.01885563012976 H 0.0 **** 0.06
32360 H 15.73422958455484 66.6580118776047 114.07756858122548 H 0.0 **** 0.06
32361 C 34.78325291634815 76.98391063765736 127.92753747322115 C 0.0 **** -0.24
32362 H 34.87791566412767 77.99891402364146 127.54093071569389 H 0.0 **** 0.06
32363 H 35.70668761210152 76.70028749190546 128.43210951857645 H 0.0 **** 0.06
32364 H 34.59361905658676 76.29785042783446 127.10311280628946 H 0.0 **** 0.06
32365 H 33.95454843798473 76.94047314024023 128.6346278244289 H 0.0 **** 0.06
32366 C 148.05507280232533 166.417695832949 15.290929606543415 C 0.0 **** -0.24
32367 H 148.96204673707146 166.0757518007862 15.78917074871147 H 0.0 **** 0.06
32368 H 147.97564581277013 167.5008012631827 15.383884767212564 H 0.0 **** 0.06
32369 H 147.18711952652674 165.94769720312428 15.75371799023776 H 0.0 **** 0.06
32370 H 148.0959552183763 166.146100869401 14.235685319636708 H 0.0 **** 0.06
32371 C 46.54240380964501 165.32483399793807 101.65466099604353 C 0.0 **** -0.24
32372 H 45.93648788817724 165.58801641125717 102.5215932845889 H 0.0 **** 0.06
32373 H 45.99190361237851 164.62456361399023 101.02652597717784 H 0.0 **** 0.06
32374 H 47.47104493575014 164.86229967584944 101.98752180877727 H 0.0 **** 0.06
32375 H 46.768677452868076 166.22531990036265 101.08301680911197 H 0.0 **** 0.06
32376 C 46.42434889721886 131.44569328435034 111.39844163675775 C 0.0 **** -0.24
32377 H 45.81456414865016 132.2814205575051 111.05481222416756 H 0.0 **** 0.06
32378 H 46.104425927608304 131.14820127977723 112.39645439052467 H 0.0 **** 0.06
32379 H 47.47094007296951 131.74954498022782 111.42726435169229 H 0.0 **** 0.06
32380 H 46.308774208677335 130.60617664163547 110.71285212257229 H 0.0 **** 0.06
32381 C 65.07933377320057 192.39844009384345 131.4170780190687 C 0.0 **** -0.24
32382 H 64.02297450499952 192.39975537946958 131.14667264081092 H 0.0 **** 0.06
32383 H 65.21525971696512 192.94688342819498 132.34987851050926 H 0.0 **** 0.06
32384 H 65.65673618932199 192.87828713433152 130.62619245686324 H 0.0 **** 0.06
32385 H 65.4200920838299 191.37166586438315 131.5446637024559 H 0.0 **** 0.06
32386 C 53.47804989358616 18.148365416358715 99.99644992079124 C 0.0 **** -0.24
32387 H 53.755713241177716 19.02351535319997 99.40860951280274 H 0.0 **** 0.06
32388 H 52.83589490363434 17.499530051789336 99.39986183333673 H 0.0 **** 0.06
32389 H 52.94227475540316 18.467468498420146 100.89079209257034 H 0.0 **** 0.06
32390 H 54.376688044280115 17.60443881069736 100.28547583492448 H 0.0 **** 0.06
32391 C 28.119309175890834 69.8186350716756 8.197393647787216 C 0.0 **** -0.24
32392 H 28.838662622403575 70.40308084798403 7.624180401735643 H 0.0 **** 0.06
32393 H 28.49817366968267 69.66663740260452 9.208700779165198 H 0.0 **** 0.06
32394 H 27.97047510114912 68.8519811335118 7.7166606084172 H 0.0 **** 0.06
32395 H 27.169537488371788 70.35296799080072 8.240945744510796 H 0.0 **** 0.06
32396 C 192.9696301500791 1.506057867335869 48.95928892398774 C 0.0 **** -0.24
32397 H 193.28419494750813 0.46363455897238737 48.90979836394905 H 0.0 **** 0.06
32398 H 193.84829165927508 2.151464367635583 48.94667551575702 H 0.0 **** 0.06
32399 H 192.40937093282986 1.6730985487456564 49.87961860277301 H 0.0 **** 0.06
32400 H 192.33712026129444 1.7364296151778547 48.10185975167701 H 0.0 **** 0.06
32401 C 145.2107288618893 33.7759714756277 116.94052787700372 C 0.0 **** -0.24
32402 H 146.12067040895778 34.29188943417374 117.24730259410501 H 0.0 **** 0.06
32403 H 145.38643127586016 33.262935702049646 115.9945011017802 H 0.0 **** 0.06
32404 H 144.40560959783647 34.500081818590374 116.81713882892996 H 0.0 **** 0.06
32405 H 144.93055140586551 33.04835377642934 117.70246997946839 H 0.0 **** 0.06
32406 C 100.47600233330178 44.0386967936622 180.1192422298856 C 0.0 **** -0.24
32407 H 100.30957198437912 44.98792006371957 180.62933322419917 H 0.0 **** 0.06
32408 H 100.78990739007779 43.2870915416902 180.84316199753928 H 0.0 **** 0.06
32409 H 101.25158812126102 44.163649944784254 179.3639534988796 H 0.0 **** 0.06
32410 H 99.55116773460048 43.71787940721832 179.63918716558177 H 0.0 **** 0.06
32411 C 13.853456577355047 71.40890811386674 157.70656331699024 C 0.0 **** -0.24
32412 H 14.79334405853183 71.41356069005258 158.2592590519728 H 0.0 **** 0.06
32413 H 13.70321749941479 72.3808234502082 157.2368661013392 H 0.0 **** 0.06
32414 H 13.03071853895986 71.20431687957 158.39108008992127 H 0.0 **** 0.06
32415 H 13.888598001274033 70.63608635668993 156.93877213971317 H 0.0 **** 0.06
32416 C 173.37969343542426 57.951803157954416 136.21187770323718 C 0.0 **** -0.24
32417 H 174.35226651287078 57.85044224262633 136.69231108273297 H 0.0 **** 0.06
32418 H 172.86298443066863 58.82167158129113 136.6179410264133 H 0.0 **** 0.06
32419 H 172.7860482198952 57.05686075230257 136.39924936166824 H 0.0 **** 0.06
32420 H 173.5167552911727 58.07766606514619 135.13761503942987 H 0.0 **** 0.06
32421 C 78.41208759329962 144.0742292254121 84.43865636026493 C 0.0 **** -0.24
32422 H 78.25049083513547 144.8453918001684 85.19178945042142 H 0.0 **** 0.06
32423 H 77.45411616092052 143.77466064565562 84.01382100450553 H 0.0 **** 0.06
32424 H 78.89112375896934 143.2108207150418 84.90075460393521 H 0.0 **** 0.06
32425 H 79.05306732799622 144.46695425829427 83.64966415519388 H 0.0 **** 0.06
32426 C 64.17962449859152 25.563925293811238 17.346697008655667 C 0.0 **** -0.24
32427 H 63.74219343758898 25.181419175026065 16.423462011622803 H 0.0 **** 0.06
32428 H 63.53139067367363 25.311598424927112 18.186127619743047 H 0.0 **** 0.06
32429 H 64.28325671590954 26.646887071720172 17.278316923548573 H 0.0 **** 0.06
32430 H 65.16119051289024 25.11387366336713 17.49641467297141 H 0.0 **** 0.06
32431 C 61.006537277447705 103.11980442420958 26.436861262093515 C 0.0 **** -0.24
32432 H 61.30939348551465 104.15381592614204 26.270686587790777 H 0.0 **** 0.06
32433 H 61.45419398589689 102.7552636134871 27.361212462985947 H 0.0 **** 0.06
32434 H 61.34312376578259 102.50460980004146 25.602417260672325 H 0.0 **** 0.06
32435 H 59.91984841120103 103.06746146200169 26.512082471261436 H 0.0 **** 0.06
32436 C 38.38555789045607 64.18172052994746 32.03831031687588 C 0.0 **** -0.24
32437 H 39.0071967122183 64.95708190984949 31.590098762959855 H 0.0 **** 0.06
32438 H 37.335433224181784 64.46265313877646 31.951691840914123 H 0.0 **** 0.06
32439 H 38.64713530491814 64.06956969412457 33.090647779554445 H 0.0 **** 0.06
32440 H 38.55290291115334 63.237845376297514 31.519484700386045 H 0.0 **** 0.06
32441 C 11.00953710080249 66.71646752681467 145.80030559460295 C 0.0 **** -0.24
32442 H 10.760723708284019 65.90399445242222 145.11846612963157 H 0.0 **** 0.06
32443 H 11.650320723511065 67.4351378667347 145.28924789006848 H 0.0 **** 0.06
32444 H 11.534368372170213 66.31357207230782 146.66720933634375 H 0.0 **** 0.06
32445 H 10.094336943470182 67.21043950830541 146.1262381489871 H 0.0 **** 0.06
32446 C 50.70039510861535 104.48105727774055 107.54632803916394 C 0.0 **** -0.24
32447 H 49.74096808341541 103.96487058497166 107.58026568531022 H 0.0 **** 0.06
32448 H 51.48362812028547 103.81432785703498 107.9092738286725 H 0.0 **** 0.06
32449 H 50.65696679294609 105.36922598169258 108.1767199946305 H 0.0 **** 0.06
32450 H 50.91895641325526 104.77387552522111 106.5194433765746 H 0.0 **** 0.06
32451 C 48.197896439631904 31.16179465719634 2.2856698706191168 C 0.0 **** -0.24
32452 H 49.03244347806776 30.676859282905767 2.7933052044566438 H 0.0 **** 0.06
32453 H 48.557686582965374 31.640871791002084 1.3746578770924458 H 0.0 **** 0.06
32454 H 47.760180213813385 31.91316165058099 2.943322393753398 H 0.0 **** 0.06
32455 H 47.444361368021276 30.416818959101505 2.0318337645865583 H 0.0 **** 0.06
32456 C 30.542201865259244 123.35039530544105 194.7727389392347 C 0.0 **** -0.24
32457 H 31.00194861421238 123.38476771568264 195.7608589544472 H 0.0 **** 0.06
32458 H 31.31250647442664 123.46269924220269 194.0101294025893 H 0.0 **** 0.06
32459 H 29.81843282947733 124.1601036025977 194.68124832212513 H 0.0 **** 0.06
32460 H 30.03644028706387 122.3945393501923 194.64028412679318 H 0.0 **** 0.06
32461 C 81.86188354669036 170.30177059083314 31.714048911051265 C 0.0 **** -0.24
32462 H 82.54704552557891 171.083946302477 32.03834023774584 H 0.0 **** 0.06
32463 H 80.89995853626613 170.4325541911669 32.2105442524562 H 0.0 **** 0.06
32464 H 82.27469941279557 169.32694265923294 31.97245988877151 H 0.0 **** 0.06
32465 H 81.7245619499447 170.36359229731204 30.63422830060142 H 0.0 **** 0.06
32466 C 66.4477263535492 99.05560851137571 49.24046663718278 C 0.0 **** -0.24
32467 H 67.52363529526502 99.22493326592868 49.20783625311543 H 0.0 **** 0.06
32468 H 66.005543763947 99.3453099424257 48.2862018085047 H 0.0 **** 0.06
32469 H 66.01052597653359 99.65316985214906 50.03955857677663 H 0.0 **** 0.06
32470 H 66.25208688597024 97.99961310838279 49.42606454777507 H 0.0 **** 0.06
32471 C 177.2766331347467 13.22759332264647 57.37057648740367 C 0.0 **** -0.24
32472 H 178.08747666324334 13.896585537402558 57.65995320618539 H 0.0 **** 0.06
32473 H 176.51022740444523 13.79417852701198 56.84242581893267 H 0.0 **** 0.06
32474 H 176.8445933335061 12.775312884147894 58.26320613921908 H 0.0 **** 0.06
32475 H 177.6665530492818 12.445463126949335 56.71941637461859 H 0.0 **** 0.06
32476 C 126.26754780423178 4.2777963162337755 50.97752331765605 C 0.0 **** -0.24
32477 H 126.39529615560312 3.1954728983479868 51.01203531771232 H 0.0 **** 0.06
32478 H 126.30880068367682 4.6804312197808144 51.99087077665045 H 0.0 **** 0.06
32479 H 125.30246883050188 4.515179491846823 50.53118772677038 H 0.0 **** 0.06
32480 H 127.06408067086954 4.718607011539461 50.37759914056322 H 0.0 **** 0.06
32481 C 108.65591346780855 44.077541364623116 0.8959353649356103 C 0.0 **** -0.24
32482 H 108.2738559931251 43.35878662966584 0.17132623634068977 H 0.0 **** 0.06
32483 H 109.63346352111932 43.7500419051032 1.2515119465577413 H 0.0 **** 0.06
32484 H 107.96658214855205 44.14542027575975 1.737364780437673 H 0.0 **** 0.06
32485 H 108.74940433062056 45.055298085053025 0.42283395218029796 H 0.0 **** 0.06
32486 C 81.29446977560224 76.38284306860591 21.259997366710024 C 0.0 **** -0.24
32487 H 80.50642640167212 76.34958044366849 22.01175590687359 H 0.0 **** 0.06
32488 H 82.17614660315394 75.86335274110503 21.634374767432973 H 0.0 **** 0.06
32489 H 81.54662089522333 77.42095961518027 21.04351288326214 H 0.0 **** 0.06
32490 H 80.94580179706423 75.89650102712193 20.34817130187588 H 0.0 **** 0.06
32491 C 38.50622102680924 182.88055025338323 184.62156530030833 C 0.0 **** -0.24
32492 H 37.70835261700786 183.6208501572069 184.67386940746565 H 0.0 **** 0.06
32493 H 39.47042112206714 183.38828372261867 184.57011992625576 H 0.0 **** 0.06
32494 H 38.37264725118396 182.26412446538754 183.73232518266832 H 0.0 **** 0.06
32495 H 38.47506676870725 182.24869570496196 185.50934057010082 H 0.0 **** 0.06
32496 C 134.44564050404733 158.96268893448251 90.49790272947004 C 0.0 **** -0.24
32497 H 133.9434586326803 158.34407512966294 89.75342033681582 H 0.0 **** 0.06
32498 H 135.45746091314572 158.58838241162016 90.65753291572759 H 0.0 **** 0.06
32499 H 133.89160344369373 158.9237184504523 91.43552947238686 H 0.0 **** 0.06
32500 H 134.4899793856917 159.99186106325976 90.143861148908 H 0.0 **** 0.06
32501 C 120.47271979307456 148.40077200378448 95.62222903319832 C 0.0 **** -0.24
32502 H 120.81145541857862 148.1462898462606 94.61855445290809 H 0.0 **** 0.06
32503 H 119.59175136180332 147.80746917385054 95.87011830081758 H 0.0 **** 0.06
32504 H 120.22045548360356 149.4606123980749 95.66331126298621 H 0.0 **** 0.06
32505 H 121.26664003902178 148.1890051140531 96.33819069581165 H 0.0 **** 0.06
32506 C 98.39034100851478 67.13976618150194 59.61924904571299 C 0.0 **** -0.24
32507 H 98.20938510922352 67.30910560527865 58.55763621056025 H 0.0 **** 0.06
32508 H 99.21489461605955 67.77145069447212 59.95184750884869 H 0.0 **** 0.06
32509 H 98.6458874682979 66.09327579153282 59.78148505916079 H 0.0 **** 0.06
32510 H 97.49123466152238 67.38675156117358 60.184386812897 H 0.0 **** 0.06
32511 C 68.98325383184556 57.17898648796776 64.41551384901987 C 0.0 **** -0.24
32512 H 70.01554351272955 57.13666819932767 64.06765631159814 H 0.0 **** 0.06
32513 H 68.75837276822381 56.28263209352424 64.99358477113049 H 0.0 **** 0.06
32514 H 68.31298532391492 57.23669219616215 63.55756287540916 H 0.0 **** 0.06
32515 H 68.84745844233015 58.060096697611044 65.04283760747488 H 0.0 **** 0.06
32516 C 149.19864169389058 15.66078190602721 123.9624216466915 C 0.0 **** -0.24
32517 H 149.35656548509365 15.559518505390642 122.88841722645793 H 0.0 **** 0.06
32518 H 148.4775572476188 16.456152839719508 124.14934935711645 H 0.0 **** 0.06
32519 H 150.14385785837467 15.903668562845866 124.44754549639245 H 0.0 **** 0.06
32520 H 148.81607998166388 14.721377072089993 124.36239138550079 H 0.0 **** 0.06
32521 C 176.54717869951352 8.396787522836256 97.78164193116052 C 0.0 **** -0.24
32522 H 175.85208580969078 7.916270417028542 97.09385355797167 H 0.0 **** 0.06
32523 H 176.47032381716934 9.479276217700495 97.67995007643373 H 0.0 **** 0.06
32524 H 177.56428864691014 8.081747470254143 97.54808721162578 H 0.0 **** 0.06
32525 H 176.3038449751609 8.108574188228467 98.80479464540994 H 0.0 **** 0.06
32526 C 153.82529617227038 85.38062402094863 148.64496393102263 C 0.0 **** -0.24
32527 H 154.07857375343292 86.43637621906873 148.73748651490922 H 0.0 **** 0.06
32528 H 154.69256647751598 84.82880811104991 148.28230830485916 H 0.0 **** 0.06
32529 H 153.00086013058285 85.2660217278177 147.9406953561986 H 0.0 **** 0.06
32530 H 153.52718336118699 84.99174740551967 149.61847839225015 H 0.0 **** 0.06
32531 C 188.46684812736765 169.92924692400348 64.14425169804429 C 0.0 **** -0.24
32532 H 188.5263195293901 170.54147041867688 63.2445182806772 H 0.0 **** 0.06
32533 H 187.4827143680991 169.46264773649912 64.20127497687497 H 0.0 **** 0.06
32534 H 188.62310847243765 170.557368078591 65.02177618289784 H 0.0 **** 0.06
32535 H 189.23467864897825 169.15630495094862 64.10927054028679 H 0.0 **** 0.06
32536 C 86.01667556608274 131.98912581547188 100.7191167416122 C 0.0 **** -0.24
32537 H 87.07101405858339 132.22928847451942 100.58022133665256 H 0.0 **** 0.06
32538 H 85.87688151472341 131.51686306258517 101.69234859142804 H 0.0 **** 0.06
32539 H 85.69398637953094 131.30519267102687 99.934128318072 H 0.0 **** 0.06
32540 H 85.4263191086616 132.90393775289695 100.67127276848652 H 0.0 **** 0.06
32541 C 145.9560631319971 45.16269918558933 109.57958134645216 C 0.0 **** -0.24
32542 H 146.2409121348242 44.58149313867342 110.45612469444578 H 0.0 **** 0.06
32543 H 146.5076290592585 46.10258434215193 109.57186167541326 H 0.0 **** 0.06
32544 H 144.88685396241053 45.36825987748672 109.61101699937316 H 0.0 **** 0.06
32545 H 146.19062148788555 44.59627664548202 108.67705842943556 H 0.0 **** 0.06
32546 C 174.0221678412732 125.99780932362322 190.66869540362376 C 0.0 **** -0.24
32547 H 173.3367569920041 126.7296712594545 190.24096445714883 H 0.0 **** 0.06
32548 H 174.5991066814557 126.46414134158337 191.46722323858364 H 0.0 **** 0.06
32549 H 174.6980621361763 125.63605842284446 189.89431510026483 H 0.0 **** 0.06
32550 H 173.45144999032 125.16100110540188 191.07235719313366 H 0.0 **** 0.06
32551 C 10.902023458317103 0.4524086559471101 147.05313765328984 C 0.0 **** -0.24
32552 H 10.118061135361643 -0.16862544500305887 147.48755038707026 H 0.0 **** 0.06
32553 H 11.540589580372114 -0.16128840170678416 146.416999356779 H 0.0 **** 0.06
32554 H 11.499640872196494 0.8936088558473188 147.8508659868331 H 0.0 **** 0.06
32555 H 10.449053625405213 1.2450355293812265 146.45792370517864 H 0.0 **** 0.06
32556 C 0.44086602792509666 196.7707259398311 103.54365011711164 C 0.0 **** -0.24
32557 H 0.07652567088086926 196.237166624506 104.421794327156 H 0.0 **** 0.06
32558 H 1.1185037706207765 196.12663459752366 102.98280064933414 H 0.0 **** 0.06
32559 H 0.9709678895173397 197.66887082304282 103.86002246121672 H 0.0 **** 0.06
32560 H -0.40232316796743817 197.0499756626359 102.91219446106498 H 0.0 **** 0.06
32561 C 141.27338265457357 180.18079917370076 177.44876886286121 C 0.0 **** -0.24
32562 H 141.46092040692014 181.12437563061596 177.9602136024919 H 0.0 **** 0.06
32563 H 140.19860309244464 180.03000629586492 177.34759038843387 H 0.0 **** 0.06
32564 H 141.70310832166686 179.36261065944765 178.02599851471356 H 0.0 **** 0.06
32565 H 141.73096016346483 180.20691100969543 176.45915241910154 H 0.0 **** 0.06
32566 C 105.77296284521975 64.4742334570746 120.8186054476812 C 0.0 **** -0.24
32567 H 106.4106784968364 65.34471686291366 120.97068456608434 H 0.0 **** 0.06
32568 H 106.34992389272941 63.68158223852731 120.3412756899184 H 0.0 **** 0.06
32569 H 104.9322989971696 64.74636694862005 120.18101128026291 H 0.0 **** 0.06
32570 H 105.40116794869999 64.12434607887388 121.78117702437441 H 0.0 **** 0.06
32571 C 176.66410372631935 129.5308277519376 58.31829417202772 C 0.0 **** -0.24
32572 H 176.22541630999018 130.20734244359497 57.584893938365326 H 0.0 **** 0.06
32573 H 176.66024395134525 130.0061364442181 59.29971480229193 H 0.0 **** 0.06
32574 H 177.69014670859258 129.29872510878448 58.02996123947986 H 0.0 **** 0.06
32575 H 176.08179001499326 128.60982595937867 58.35720610019479 H 0.0 **** 0.06
32576 C 120.29708618105852 114.29001176858003 86.57330076701123 C 0.0 **** -0.24
32577 H 120.154079377118 113.85047605573368 85.58648666127482 H 0.0 **** 0.06
32578 H 119.46737323095908 114.00584440826663 87.22120279082887 H 0.0 **** 0.06
32579 H 120.3340524604892 115.37606760966543 86.48534681457147 H 0.0 **** 0.06
32580 H 121.23179089378584 113.92860442292994 87.00024629016764 H 0.0 **** 0.06
32581 C 25.265465412190153 0.039163963904755406 26.921875735770882 C 0.0 **** -0.24
32582 H 26.258941423145245 -0.01933066839167452 26.477035899165784 H 0.0 **** 0.06
32583 H 24.601081910320403 -0.6656272705345003 26.420857189798824 H 0.0 **** 0.06
32584 H 24.875113543950505 1.0505095941501068 26.80715815674516 H 0.0 **** 0.06
32585 H 25.32712252776666 -0.20920987419644632 27.981589625105116 H 0.0 **** 0.06
32586 C 56.334560967638254 148.7468032260715 176.10370410100117 C 0.0 **** -0.24
32587 H 56.16704258413138 148.29490488401424 175.1256753808865 H 0.0 **** 0.06
32588 H 56.59331396827403 149.79794258489017 175.9781827699815 H 0.0 **** 0.06
32589 H 57.15075960119776 148.22869732653058 176.6068370280713 H 0.0 **** 0.06
32590 H 55.427350456772174 148.66368381552118 176.7027023886925 H 0.0 **** 0.06
32591 C 65.21909456906157 166.61166660605053 92.57091856186 C 0.0 **** -0.24
32592 H 65.68570266481821 165.69789311316333 92.20204109499036 H 0.0 **** 0.06
32593 H 64.13655398810309 166.4801442044784 92.59833152601948 H 0.0 **** 0.06
32594 H 65.468343010109 167.4402129981886 91.90788856581952 H 0.0 **** 0.06
32595 H 65.58469401993241 166.82649410800883 93.57505294938267 H 0.0 **** 0.06
32596 C 124.12424174074721 97.11663197210993 192.38001000747704 C 0.0 **** -0.24
32597 H 124.14605063370564 98.20420824246969 192.30104202905136 H 0.0 **** 0.06
32598 H 123.08850055282397 96.7762880811473 192.40635266270885 H 0.0 **** 0.06
32599 H 124.63170180343127 96.80890808605693 193.2935005362782 H 0.0 **** 0.06
32600 H 124.62943525520515 96.68113258730273 191.5180079904584 H 0.0 **** 0.06
32601 C 5.574067752400111 29.718341193105772 109.53638695566002 C 0.0 **** -0.24
32602 H 4.8187729945451 29.007399616056944 109.87259463449047 H 0.0 **** 0.06
32603 H 5.230741070790714 30.209032701435902 108.62535659006227 H 0.0 **** 0.06
32604 H 6.506019491702546 29.189504524212722 109.33523669412205 H 0.0 **** 0.06
32605 H 5.740660627809888 30.46607327736848 110.31196108634416 H 0.0 **** 0.06
32606 C 151.65813172572706 63.79158457458843 69.35402859544632 C 0.0 **** -0.24
32607 H 151.8453342141761 63.71670077218249 68.28294394805766 H 0.0 **** 0.06
32608 H 150.58361176060544 63.83636594684248 69.53259276832159 H 0.0 **** 0.06
32609 H 152.12988644022462 64.69531456810904 69.74210759390911 H 0.0 **** 0.06
32610 H 152.07478275309148 62.919528996618624 69.85731048154071 H 0.0 **** 0.06
32611 C 7.040311014451419 134.01310408232402 64.56595633282842 C 0.0 **** -0.24
32612 H 6.686303852619751 134.51196370647165 65.46767340000358 H 0.0 **** 0.06
32613 H 6.708363588476757 134.57005077673517 63.68872602816327 H 0.0 **** 0.06
32614 H 6.6368888961811905 133.00156591401117 64.52724203393583 H 0.0 **** 0.06
32615 H 8.128979555786508 133.97023329457363 64.57858825370617 H 0.0 **** 0.06
32616 C 184.79080822823215 136.06883089715927 92.85814067542356 C 0.0 **** -0.24
32617 H 185.45494278738153 135.9094318483131 92.00813071530234 H 0.0 **** 0.06
32618 H 184.73599227350496 137.135254874994 93.08063972937208 H 0.0 **** 0.06
32619 H 185.17733637036724 135.5353737673572 93.72627382088604 H 0.0 **** 0.06
32620 H 183.7957724939091 135.69730847791152 92.61547910423008 H 0.0 **** 0.06
32621 C 164.9596711099448 16.702698988105 17.7718668722747 C 0.0 **** -0.24
32622 H 165.81781716492708 16.903591189287482 18.412948260796895 H 0.0 **** 0.06
32623 H 164.05753025073287 17.10256153684236 18.235253862452055 H 0.0 **** 0.06
32624 H 164.85239222006112 15.625859393407467 17.635545768167788 H 0.0 **** 0.06
32625 H 165.11213544891427 17.176868571828862 16.802763423209626 H 0.0 **** 0.06
32626 C 148.5349511604837 101.2203918620157 92.66178144831389 C 0.0 **** -0.24
32627 H 149.49335992991044 101.23879875236923 92.1411889605389 H 0.0 **** 0.06
32628 H 148.18655231035348 100.19118768145759 92.74385253118339 H 0.0 **** 0.06
32629 H 147.8075290118316 101.80826277890131 92.10224907321458 H 0.0 **** 0.06
32630 H 148.6554514927072 101.64503774026718 93.65912304541962 H 0.0 **** 0.06
32631 C 111.73734576268077 49.90678712229885 127.72258842181125 C 0.0 **** -0.24
32632 H 110.76921877109035 50.39563716843185 127.83043293009263 H 0.0 **** 0.06
32633 H 112.27060401760849 50.33926283752464 126.8760211940891 H 0.0 **** 0.06
32634 H 111.58907775695607 48.839653682585435 127.55192049515193 H 0.0 **** 0.06
32635 H 112.32003302839576 50.05098019573916 128.63241620237793 H 0.0 **** 0.06
32636 C 146.5167410265733 156.99358590623487 0.28099004784466786 C 0.0 **** -0.24
32637 H 147.53476309890087 157.2326432919174 0.5904449466468833 H 0.0 **** 0.06
32638 H 146.32898198704456 157.4187651334902 -0.7057900117833498 H 0.0 **** 0.06
32639 H 145.81098206571656 157.41315128728348 0.9978971981752451 H 0.0 **** 0.06
32640 H 146.39480131315975 155.91151121192746 0.24074419289884474 H 0.0 **** 0.06
32641 C 141.07088724521472 71.8193582848666 139.1872920802676 C 0.0 **** -0.24
32642 H 140.97384547272355 71.40255077032317 138.18430200311562 H 0.0 **** 0.06
32643 H 142.12368749458156 71.8509404420285 139.46787341396885 H 0.0 **** 0.06
32644 H 140.525398417614 71.19350146316106 139.89413214476966 H 0.0 **** 0.06
32645 H 140.6590279473958 72.82860891171842 139.2025164285368 H 0.0 **** 0.06
32646 C 20.38551885327466 103.38382426533917 98.33661946839047 C 0.0 **** -0.24
32647 H 21.24535560038734 103.24427802160432 98.99275918114512 H 0.0 **** 0.06
32648 H 20.559886446849845 102.86373437231322 97.39474414427104 H 0.0 **** 0.06
32649 H 20.244137309905938 104.44691125551486 98.14494274448688 H 0.0 **** 0.06
32650 H 19.49430145483049 102.97936768274533 98.81635804479453 H 0.0 **** 0.06
32651 C 4.092022898975891 19.05513576898217 107.3115291243495 C 0.0 **** -0.24
32652 H 4.18428573643947 20.13347775239471 107.44252464500047 H 0.0 **** 0.06
32653 H 4.285365560226651 18.556316831209557 108.2622372851695 H 0.0 **** 0.06
32654 H 4.813541982260993 18.715802988785583 106.56856334375817 H 0.0 **** 0.06
32655 H 3.0828044731230477 18.816794550324374 106.97388531599503 H 0.0 **** 0.06
32656 C 56.776889565555365 108.27177036859828 10.171856050242724 C 0.0 **** -0.24
32657 H 56.084278727329945 107.43707229694678 10.066613352560445 H 0.0 **** 0.06
32658 H 57.53499612221577 108.21571111543761 9.39030342630604 H 0.0 **** 0.06
32659 H 57.258002101803186 108.22302245298377 11.149563617109749 H 0.0 **** 0.06
32660 H 56.230445334424815 109.21092043601197 10.081864114737023 H 0.0 **** 0.06
32661 C 171.94599131119003 28.5523328350439 100.44477937670752 C 0.0 **** -0.24
32662 H 170.9002565496345 28.243065055041882 100.45796871786447 H 0.0 **** 0.06
32663 H 172.08756796601511 29.38436908628023 101.13405319397421 H 0.0 **** 0.06
32664 H 172.2194474598175 28.864565819310286 99.43712071885898 H 0.0 **** 0.06
32665 H 172.57579722411703 27.716489957679073 100.74927547959024 H 0.0 **** 0.06
32666 C 5.789271577983186 111.8251181851063 144.28899018717107 C 0.0 **** -0.24
32667 H 5.566602673861809 112.46911765251014 145.1397592086694 H 0.0 **** 0.06
32668 H 6.723883236122049 111.29351701013377 144.47173577993328 H 0.0 **** 0.06
32669 H 5.886952007040179 112.43279944688618 143.38886035169182 H 0.0 **** 0.06
32670 H 4.98181127147808 111.10549557934667 144.15594196617303 H 0.0 **** 0.06
32671 C 198.63306785816218 107.01404938960138 178.49800540461717 C 0.0 **** -0.24
32672 H 198.58298573241757 107.93742253499511 179.0754554090289 H 0.0 **** 0.06
32673 H 199.60545929763254 106.54438832875041 178.64815223604853 H 0.0 **** 0.06
32674 H 198.49749020423104 107.23918910441955 177.44014317740857 H 0.0 **** 0.06
32675 H 197.8460782264814 106.33598266052951 178.82883394495366 H 0.0 **** 0.06
32676 C 186.82265263416264 57.27342514644607 143.70878712927873 C 0.0 **** -0.24
32677 H 186.89473623364933 57.07476102333084 142.6387407578821 H 0.0 **** 0.06
32678 H 187.48187180170044 56.59376602604647 144.24926401386557 H 0.0 **** 0.06
32679 H 185.7949432296324 57.120389265644576 144.03770212536378 H 0.0 **** 0.06
32680 H 187.11927993740125 58.30275052535211 143.9074883255623 H 0.0 **** 0.06
32681 C 94.19724739853544 133.02939938998122 1.7447262344547383 C 0.0 **** -0.24
32682 H 95.18509833650319 132.69536929204605 2.059410305683805 H 0.0 **** 0.06
32683 H 94.1505525761676 134.11846438555347 1.789029245502384 H 0.0 **** 0.06
32684 H 93.44231197488392 132.6066526191176 2.4067710450036017 H 0.0 **** 0.06
32685 H 94.01077339293676 132.69885339411076 0.7223156030046596 H 0.0 **** 0.06
32686 C 154.5170324329814 43.39881516068803 132.80536223350765 C 0.0 **** -0.24
32687 H 155.55820837004046 43.46519497621935 132.48946181622895 H 0.0 **** 0.06
32688 H 154.47266646548096 43.03733447611164 133.83331509446217 H 0.0 **** 0.06
32689 H 153.98335841970044 42.707314811611084 132.15285705270355 H 0.0 **** 0.06
32690 H 154.0556551782032 44.38403555880362 132.7458352986954 H 0.0 **** 0.06
32691 C 88.69838998319324 6.082894750178376 63.660094581648934 C 0.0 **** -0.24
32692 H 87.82921449908372 5.438207590306611 63.526666162268796 H 0.0 **** 0.06
32693 H 89.49308678657678 5.764301914121717 62.98419864567728 H 0.0 **** 0.06
32694 H 89.04657400642645 6.0134901824294715 64.69042053195123 H 0.0 **** 0.06
32695 H 88.42295777973527 7.113268481282127 63.43745645321046 H 0.0 **** 0.06
32696 C 60.75167288917089 151.28926639803345 82.89216386162781 C 0.0 **** -0.24
32697 H 61.38296543421691 150.4880031222282 82.50606206064049 H 0.0 **** 0.06
32698 H 60.26871998904727 151.80288162656598 82.06136992961547 H 0.0 **** 0.06
32699 H 61.364265488891434 151.9965289816275 83.45202960004514 H 0.0 **** 0.06
32700 H 59.992261218377934 150.8672203905873 83.55007476363278 H 0.0 **** 0.06
32701 C 137.4899482473633 28.030015620053916 145.2184028956224 C 0.0 **** -0.24
32702 H 137.14527743247885 29.064253917547163 145.24285440014026 H 0.0 **** 0.06
32703 H 137.96760612433349 27.82835067172111 144.25976121208794 H 0.0 **** 0.06
32704 H 136.63977529468943 27.360439108851182 145.34936828164876 H 0.0 **** 0.06
32705 H 138.20802823724586 27.867953367272122 146.0234517623733 H 0.0 **** 0.06
32706 C 137.75792716059843 105.69454838044626 83.57972712412243 C 0.0 **** -0.24
32707 H 137.3916776100716 104.95367734133802 82.8679946711026 H 0.0 **** 0.06
32708 H 137.68014383484012 105.29593605987102 84.5907783761524 H 0.0 **** 0.06
32709 H 137.1584732748583 106.60129400884705 83.49949568566558 H 0.0 **** 0.06
32710 H 138.7989650901042 105.92674995195148 83.35899175066439 H 0.0 **** 0.06
32711 C 74.44780527650063 105.52541741099216 47.77234810644448 C 0.0 **** -0.24
32712 H 75.27883440972187 105.00155550905282 48.245002289889996 H 0.0 **** 0.06
32713 H 74.09217508137799 106.31453655937071 48.43496777068397 H 0.0 **** 0.06
32714 H 73.63874475675489 104.82200280779605 47.576890585917994 H 0.0 **** 0.06
32715 H 74.78369285295508 105.96377656213738 46.832465944443385 H 0.0 **** 0.06
32716 C 180.80425380902727 115.52646097529927 10.525421328918924 C 0.0 **** -0.24
32717 H 180.99558092278838 115.95526076171683 9.541600528661604 H 0.0 **** 0.06
32718 H 179.90726291885886 115.97752451608528 10.94991716000277 H 0.0 **** 0.06
32719 H 181.65405335709846 115.72334139318701 11.178076279913455 H 0.0 **** 0.06
32720 H 180.66068202606414 114.45017152887738 10.429975776832492 H 0.0 **** 0.06
32721 C 29.545751536674175 49.42436233797599 102.96144144551056 C 0.0 **** -0.24
32722 H 30.5206365301147 49.12861940114783 103.35000040271245 H 0.0 **** 0.06
32723 H 28.785722696031485 48.73366223191147 103.32647870962495 H 0.0 **** 0.06
32724 H 29.566638003602947 49.398902531693125 101.87199285401397 H 0.0 **** 0.06
32725 H 29.311921691878297 50.433967791560406 103.29754572859787 H 0.0 **** 0.06
32726 C 104.86448169562868 15.87095379541421 94.11501425939556 C 0.0 **** -0.24
32727 H 105.91192473246167 16.158680243729748 94.21008936899315 H 0.0 **** 0.06
32728 H 104.34304345975352 16.08573306144463 95.04876677195776 H 0.0 **** 0.06
32729 H 104.7991915918667 14.80460209157151 93.8991186231533 H 0.0 **** 0.06
32730 H 104.40476898683971 16.43518254535296 93.30428446406407 H 0.0 **** 0.06
32731 C 168.92593432437627 30.507051076380208 73.83294496707002 C 0.0 **** -0.24
32732 H 169.57278216561122 29.629938684197626 73.86268408869333 H 0.0 **** 0.06
32733 H 167.88448842737182 30.18858748586952 73.79757478632492 H 0.0 **** 0.06
32734 H 169.15677135942363 31.097403099224678 72.94600221658915 H 0.0 **** 0.06
32735 H 169.09288027238279 31.11033188105648 74.7252347189285 H 0.0 **** 0.06
32736 C 67.02315353174316 133.50116871114022 8.488527189067078 C 0.0 **** -0.24
32737 H 66.04350581664033 133.98034596217818 8.485329491253033 H 0.0 **** 0.06
32738 H 67.3355449679658 133.30506894623443 7.462937041746557 H 0.0 **** 0.06
32739 H 66.96436339587369 132.56098584320625 9.0373318788928 H 0.0 **** 0.06
32740 H 67.74640880723145 134.15834231816686 8.971001366169787 H 0.0 **** 0.06
32741 C 105.25101329789757 160.68009574013945 11.81827332376384 C 0.0 **** -0.24
32742 H 105.78777058374487 160.9681563840084 12.72271369517616 H 0.0 **** 0.06
32743 H 105.96610906096598 160.48531294644073 11.018725698193606 H 0.0 **** 0.06
32744 H 104.58223630982991 161.48759568820913 11.51957302930191 H 0.0 **** 0.06
32745 H 104.66920676108663 159.77894033088177 12.01257661614006 H 0.0 **** 0.06
32746 C 75.72284397961836 87.66156251983799 175.20947790280763 C 0.0 **** -0.24
32747 H 74.80550645244656 87.83106940919808 175.77299183454224 H 0.0 **** 0.06
32748 H 76.44459745341806 87.14154917468636 175.83956498540016 H 0.0 **** 0.06
32749 H 76.1371612866448 88.61910342422934 174.89399055396925 H 0.0 **** 0.06
32750 H 75.50197641280184 87.05397989946039 174.3317441361349 H 0.0 **** 0.06
32751 C 86.7858551570996 173.16760591161517 176.49212846201576 C 0.0 **** -0.24
32752 H 86.18838440041651 172.26673384833785 176.63450794870266 H 0.0 **** 0.06
32753 H 86.41102586798979 173.71915426099184 175.63016727058883 H 0.0 **** 0.06
32754 H 87.82553592758086 172.89075116569913 176.32274727066076 H 0.0 **** 0.06
32755 H 86.7166629469964 173.79306928755528 177.38257705839712 H 0.0 **** 0.06
32756 C 176.4241050499074 46.30754011806454 24.079134066900338 C 0.0 **** -0.24
32757 H 176.05188075536597 45.66065947179544 24.87437315966099 H 0.0 **** 0.06
32758 H 175.65994932351447 47.03943351978694 23.81869262976761 H 0.0 **** 0.06
32759 H 176.66428212311826 45.704567637629566 23.203160977008963 H 0.0 **** 0.06
32760 H 177.32094684719362 46.82433521979175 24.42210828742003 H 0.0 **** 0.06
32761 C 37.81293209113838 63.89798810660071 138.46809216296137 C 0.0 **** -0.24
32762 H 38.63561265122121 64.15546251194161 137.80127187136551 H 0.0 **** 0.06
32763 H 37.94991952327855 62.88143711038987 138.8385961794639 H 0.0 **** 0.06
32764 H 36.870265096820916 63.96224194099847 137.92304344750238 H 0.0 **** 0.06
32765 H 37.79460923870279 64.59217845816715 139.30776810860033 H 0.0 **** 0.06
32766 C 123.578001621147 140.69400702031976 169.37928274396103 C 0.0 **** -0.24
32767 H 123.3897741613537 141.76675713792383 169.38378282154093 H 0.0 **** 0.06
32768 H 123.12699890967403 140.24243431380785 170.26371835979685 H 0.0 **** 0.06
32769 H 124.65279900039056 140.513025600991 169.38764933527906 H 0.0 **** 0.06
32770 H 123.1419699455783 140.2527946245275 168.48284719790786 H 0.0 **** 0.06
32771 C 119.93934970102555 158.12557989046888 21.816808914072496 C 0.0 **** -0.24
32772 H 120.71713285939347 157.74532482276385 22.479360144766957 H 0.0 **** 0.06
32773 H 120.37363225165768 158.36006359107915 20.843737594236586 H 0.0 **** 0.06
32774 H 119.50523318747628 159.02774525974115 22.2481384725575 H 0.0 **** 0.06
32775 H 119.1637113306391 157.3699795077914 21.696173758561443 H 0.0 **** 0.06
32776 C 64.85887625040313 128.26242191461688 24.09139615008783 C 0.0 **** -0.24
32777 H 64.14327010791887 127.89031215787222 23.35839761356698 H 0.0 **** 0.06
32778 H 64.7402618834676 127.71385435054134 25.026042046565465 H 0.0 **** 0.06
32779 H 64.67887079450071 129.32337364600352 24.2678222378006 H 0.0 **** 0.06
32780 H 65.87174138844732 128.12392159788772 23.71329357751864 H 0.0 **** 0.06
32781 C 16.226683976046672 116.0550812723985 187.7093250977572 C 0.0 **** -0.24
32782 H 15.738469721443167 115.38390580697532 187.00402659423762 H 0.0 **** 0.06
32783 H 15.9973114588975 117.08814748481362 187.44628298800137 H 0.0 **** 0.06
32784 H 17.30539862493123 115.90155020152335 187.66992188864117 H 0.0 **** 0.06
32785 H 15.867244245609498 115.84817363430412 188.71727350363318 H 0.0 **** 0.06
32786 C 154.9454837926908 56.50807253839753 5.024466192217517 C 0.0 **** -0.24
32787 H 154.1810407455668 56.12111609410999 5.697858506299347 H 0.0 **** 0.06
32788 H 155.0098973622334 55.869516301132734 4.143551041825759 H 0.0 **** 0.06
32789 H 155.90723444554655 56.52027469904377 5.536789781602899 H 0.0 **** 0.06
32790 H 154.6823370639636 57.521154451586824 4.721372964822095 H 0.0 **** 0.06
32791 C 198.81054845203028 67.57728673598422 85.44616690582222 C 0.0 **** -0.24
32792 H 199.37438249649978 68.42343146406745 85.0550084657574 H 0.0 **** 0.06
32793 H 197.8087015613641 67.5789344782653 85.01587422502928 H 0.0 **** 0.06
32794 H 198.74005345184378 67.6585411699084 86.53119034813392 H 0.0 **** 0.06
32795 H 199.31783854963118 66.64966535024541 85.18189811381308 H 0.0 **** 0.06
32796 C 93.59392809433541 124.16102397588716 128.59833869155236 C 0.0 **** -0.24
32797 H 93.78105139528284 124.5642791790371 129.59392535743507 H 0.0 **** 0.06
32798 H 92.699317757859 124.62348005397692 128.18158648802526 H 0.0 **** 0.06
32799 H 93.44901412704948 123.08274989173802 128.66425243888935 H 0.0 **** 0.06
32800 H 94.44682700546295 124.37419130699448 127.954212297417 H 0.0 **** 0.06
32801 C 154.12364330799406 173.80194915343606 47.48771042484904 C 0.0 **** -0.24
32802 H 153.88535184981794 174.21959345011047 48.46572325526574 H 0.0 **** 0.06
32803 H 155.19941770781912 173.86090630353883 47.3194213914264 H 0.0 **** 0.06
32804 H 153.60383339789837 174.36723515363573 46.71455257216081 H 0.0 **** 0.06
32805 H 153.8066337994065 172.75921305038045 47.449788167531864 H 0.0 **** 0.06
32806 C 119.04434246878793 182.86299772643594 134.85972335371093 C 0.0 **** -0.24
32807 H 118.92924613779132 183.19160555661617 135.89275985703125 H 0.0 **** 0.06
32808 H 119.92738766845531 182.2306092805178 134.77617887423003 H 0.0 **** 0.06
32809 H 119.15832383639474 183.73322954164624 134.2121366400404 H 0.0 **** 0.06
32810 H 118.16194120014478 182.29949940771328 134.5575755186162 H 0.0 **** 0.06
32811 C 45.44000343652266 126.4110538114941 71.49812217140304 C 0.0 **** -0.24
32812 H 45.13221155643231 125.37534566973264 71.63655790855567 H 0.0 **** 0.06
32813 H 46.504184893070885 126.50698636840275 71.7169382723498 H 0.0 **** 0.06
32814 H 44.871582554816996 127.05269927626736 72.17126144179099 H 0.0 **** 0.06
32815 H 45.25227238065159 126.71036022884755 70.46698280111725 H 0.0 **** 0.06
32816 C 127.46632424477792 181.8038227551694 120.20342224559988 C 0.0 **** -0.24
32817 H 127.88945503152709 180.87434670994136 119.8228315274111 H 0.0 **** 0.06
32818 H 127.77630134052589 181.94661671308413 121.23847333691896 H 0.0 **** 0.06
32819 H 126.37848771089344 181.75568518305838 120.1527750771329 H 0.0 **** 0.06
32820 H 127.82151460892848 182.63920939897721 119.598926859399 H 0.0 **** 0.06
32821 C 83.0778424161548 193.46927054685094 81.893822463762 C 0.0 **** -0.24
32822 H 83.66873619826049 194.0990526650517 81.22853327067821 H 0.0 **** 0.06
32823 H 82.13536075800653 193.212997135338 81.40863283891628 H 0.0 **** 0.06
32824 H 82.8759299016578 194.00832942859932 82.81891841574307 H 0.0 **** 0.06
32825 H 83.63076759662113 192.5568128170707 82.11704728139529 H 0.0 **** 0.06
32826 C 17.908500810655312 191.02613511196427 64.52699751159997 C 0.0 **** -0.24
32827 H 18.87771552695274 191.2688591106117 64.96236697634276 H 0.0 **** 0.06
32828 H 17.198655769796716 191.82224668402512 64.75528483404531 H 0.0 **** 0.06
32829 H 17.547788311618106 190.08686716478226 64.9459938055029 H 0.0 **** 0.06
32830 H 18.009518756633028 190.92727030703497 63.44644219327819 H 0.0 **** 0.06
32831 C 43.56823126250697 176.14465672622043 171.5468972765907 C 0.0 **** -0.24
32832 H 44.01682691749821 176.6454941400765 172.4051417158911 H 0.0 **** 0.06
32833 H 42.77095604471796 175.48379173201027 171.88802684592463 H 0.0 **** 0.06
32834 H 44.32894835665746 175.5597089936551 171.02982055329653 H 0.0 **** 0.06
32835 H 43.156939349573804 176.8887821810758 170.86544960155925 H 0.0 **** 0.06
32836 C 103.68957464566591 94.36130279108102 143.72204864967222 C 0.0 **** -0.24
32837 H 103.14186931434779 93.72295034585073 143.0281353069165 H 0.0 **** 0.06
32838 H 103.8362847060124 93.83292776258637 144.6640930599101 H 0.0 **** 0.06
32839 H 103.12102968336615 95.27341911414996 143.90203506693206 H 0.0 **** 0.06
32840 H 104.65850202936036 94.61628250974101 143.29271107630427 H 0.0 **** 0.06
32841 C 165.24178362545365 39.60344785773816 150.37183423172704 C 0.0 **** -0.24
32842 H 165.8545911985261 40.310378335619845 149.81284062468526 H 0.0 **** 0.06
32843 H 164.32547533551778 39.39930564925089 149.81750150748604 H 0.0 **** 0.06
32844 H 164.99100656140092 40.02927223039745 151.3439181648586 H 0.0 **** 0.06
32845 H 165.79624105484547 38.67581508101466 150.5131638765178 H 0.0 **** 0.06
32846 C 96.0170975194543 100.58021261817146 146.11570722841148 C 0.0 **** -0.24
32847 H 96.05724146938337 101.39090541112773 146.8442436883353 H 0.0 **** 0.06
32848 H 97.00748677654639 100.43202955508542 145.68370999377265 H 0.0 **** 0.06
32849 H 95.3097916286224 100.83598530741483 145.32712408190935 H 0.0 **** 0.06
32850 H 95.694978674911 99.66391038386763 146.61055301324893 H 0.0 **** 0.06
32851 C 158.33873465117338 191.87010296995317 144.33198386490076 C 0.0 **** -0.24
32852 H 157.9669357821714 192.46532499074362 145.1655880962691 H 0.0 **** 0.06
32853 H 157.5055732439501 191.3595761073019 143.8491297762439 H 0.0 **** 0.06
32854 H 159.0519913233491 191.13240609664226 144.7021054184064 H 0.0 **** 0.06
32855 H 158.83247884661262 192.5220650702734 143.61198125869126 H 0.0 **** 0.06
32856 C 1.5679151170080843 4.042738037513509 95.66961948277742 C 0.0 **** -0.24
32857 H 1.2599128805497486 2.997965333316408 95.71447824191875 H 0.0 **** 0.06
32858 H 2.268596247284705 4.178770220325575 94.84453044075894 H 0.0 **** 0.06
32859 H 2.0512648079307354 4.319528536487965 96.60659108290895 H 0.0 **** 0.06
32860 H 0.6929037320908336 4.672106173425568 95.51173827027412 H 0.0 **** 0.06
32861 C 161.21640707086755 79.69383914276398 175.46272545343027 C 0.0 **** -0.24
32862 H 161.9717474760983 79.02956205172526 175.04343141548463 H 0.0 **** 0.06
32863 H 161.6151593684867 80.70601812847411 175.5233964404072 H 0.0 **** 0.06
32864 H 160.94316599964787 79.34923133652558 176.45965496022563 H 0.0 **** 0.06
32865 H 160.33409526488157 79.68873528914301 174.82252351999443 H 0.0 **** 0.06
32866 C 11.182744295492789 158.40258316950417 188.38469140019134 C 0.0 **** -0.24
32867 H 10.109457186295977 158.59516956731036 188.366253112488 H 0.0 **** 0.06
32868 H 11.365029400170577 157.34288052884676 188.20718047713953 H 0.0 **** 0.06
32869 H 11.585717921733725 158.6834625005817 189.35835600683697 H 0.0 **** 0.06
32870 H 11.670358557251824 158.99050143108138 187.60693556673903 H 0.0 **** 0.06
32871 C 52.742533234606995 74.04874811278493 168.01236987905992 C 0.0 **** -0.24
32872 H 51.95491059507877 74.80377692409866 168.00673029857666 H 0.0 **** 0.06
32873 H 53.56108663662593 74.37429384809666 167.36972689574912 H 0.0 **** 0.06
32874 H 52.34261620737384 73.10528954151367 167.64139283306983 H 0.0 **** 0.06
32875 H 53.10898069214822 73.91455740028225 169.02918045858758 H 0.0 **** 0.06
32876 C 33.913301352242115 3.6985905569298154 54.75655878025037 C 0.0 **** -0.24
32877 H 34.65685062052253 3.4661165105281952 55.519042871769344 H 0.0 **** 0.06
32878 H 33.80915143360184 4.779859703442753 54.669097362571534 H 0.0 **** 0.06
32879 H 32.95489347684715 3.262420998272006 55.039551994857874 H 0.0 **** 0.06
32880 H 34.23236273636192 3.284443576389492 53.79984000997992 H 0.0 **** 0.06
32881 C 44.830377963313936 154.47445985335264 36.871065377998434 C 0.0 **** -0.24
32882 H 45.807906444753385 154.57779739645352 37.34223318830237 H 0.0 **** 0.06
32883 H 44.95262425637797 154.44187435400056 35.787749753023434 H 0.0 **** 0.06
32884 H 44.20498133826469 155.32546393521608 37.14143143240821 H 0.0 **** 0.06
32885 H 44.35791181212112 153.55328133912147 37.21184178467803 H 0.0 **** 0.06
32886 C 63.02439360334044 76.85294727909763 81.1703486882804 C 0.0 **** -0.24
32887 H 63.82079327488127 76.31331979488624 80.65651169706373 H 0.0 **** 0.06
32888 H 63.37261314483278 77.85224714797835 81.43085895124182 H 0.0 **** 0.06
32889 H 62.74900827455815 76.3153088018907 82.07725742412296 H 0.0 **** 0.06
32890 H 62.15663307639163 76.92864451875329 80.51546986944612 H 0.0 **** 0.06
32891 C 92.6215052764347 9.621403873502288 55.89499664334683 C 0.0 **** -0.24
32892 H 92.99157315181583 8.739176529875749 55.37385238558794 H 0.0 **** 0.06
32893 H 91.89653034793798 10.137816851518153 55.26529378760078 H 0.0 **** 0.06
32894 H 93.45428788150332 10.290016934553591 56.11473604788932 H 0.0 **** 0.06
32895 H 92.14272261015057 9.319026088035343 56.82610431992185 H 0.0 **** 0.06
32896 C 89.20305972541274 76.14960418655993 184.83300757086937 C 0.0 **** -0.24
32897 H 89.25209592404764 77.13611568062306 185.29473175335823 H 0.0 **** 0.06
32898 H 88.88997439231815 75.41597635312498 185.57702806468495 H 0.0 **** 0.06
32899 H 90.18626221310143 75.87956245968886 184.44691816585922 H 0.0 **** 0.06
32900 H 88.48319499173942 76.16766195951877 184.01551669218955 H 0.0 **** 0.06
32901 C 184.16801731725468 112.44903711884143 112.28367012383433 C 0.0 **** -0.24
32902 H 184.04578995902577 112.72157503460579 113.3324261781184 H 0.0 **** 0.06
32903 H 184.68350135535565 111.4918795196225 112.21430739295829 H 0.0 **** 0.06
32904 H 184.75374740601436 113.2160689571491 111.7755981448035 H 0.0 **** 0.06
32905 H 183.18810598125546 112.36981203911739 111.81334275466031 H 0.0 **** 0.06
32906 C 84.61008543500213 18.758612232628636 55.945929615057594 C 0.0 **** -0.24
32907 H 85.57478270219318 18.360139254930118 55.63176062945138 H 0.0 **** 0.06
32908 H 84.2474893756887 18.193467931858834 56.8055747379272 H 0.0 **** 0.06
32909 H 83.89661044413609 18.672291273398855 55.127264371102115 H 0.0 **** 0.06
32910 H 84.72220825790464 19.80739808118959 56.221785392526954 H 0.0 **** 0.06
32911 C 117.92075494843897 17.632299578840275 90.88261866328139 C 0.0 **** -0.24
32912 H 118.03420935524221 16.785651074549037 90.20597246485386 H 0.0 **** 0.06
32913 H 117.03403073146649 18.202037856486015 90.60479652667865 H 0.0 **** 0.06
32914 H 118.79989658106174 18.272599598479076 90.8151683681966 H 0.0 **** 0.06
32915 H 117.81350918586898 17.268582023896272 91.90446726559063 H 0.0 **** 0.06
32916 C 57.48927243480807 51.35400454514077 114.879142120253 C 0.0 **** -0.24
32917 H 58.221496295959525 50.611162181659566 114.56276082864457 H 0.0 **** 0.06
32918 H 56.79801844974713 50.90384143611193 115.59153301231487 H 0.0 **** 0.06
32919 H 56.935109234408856 51.711209672774984 114.01110391361163 H 0.0 **** 0.06
32920 H 58.0033764934567 52.19183609811523 115.35138253934315 H 0.0 **** 0.06
32921 C 100.38352644024164 40.09299376477108 35.88836092795873 C 0.0 **** -0.24
32922 H 101.32843598437987 39.570272375876755 35.740327204648665 H 0.0 **** 0.06
32923 H 99.87596971355748 40.20347926194515 34.92937821905035 H 0.0 **** 0.06
32924 H 100.57699562840392 41.077115719604706 36.31431669753847 H 0.0 **** 0.06
32925 H 99.75437412311675 39.5196214591673 36.5694793113456 H 0.0 **** 0.06
32926 C 24.732156805953025 116.39910373103504 108.74083062058932 C 0.0 **** -0.24
32927 H 25.195468438008334 116.36511356553353 107.75474660583589 H 0.0 **** 0.06
32928 H 23.691803820243422 116.08247297293599 108.66403010745597 H 0.0 **** 0.06
32929 H 24.774564523674798 117.4178318685781 109.1268685215959 H 0.0 **** 0.06
32930 H 25.266238817868327 115.73170867735973 109.41619785450382 H 0.0 **** 0.06
32931 C 109.50961377247165 142.72981313554158 135.81851984725625 C 0.0 **** -0.24
32932 H 109.05866255619941 141.83643064340083 136.25153073020826 H 0.0 **** 0.06
32933 H 110.49813195804427 142.88444601639193 136.25380045120275 H 0.0 **** 0.06
32934 H 108.8800427288752 143.59392041563302 136.03111710698224 H 0.0 **** 0.06
32935 H 109.6032937029081 142.60336262004964 134.74027636623097 H 0.0 **** 0.06
32936 C 93.52817473796546 157.12301755141078 26.912021476173948 C 0.0 **** -0.24
32937 H 92.89682909932216 156.4989705456848 26.278633186457128 H 0.0 **** 0.06
32938 H 94.54287674681282 156.72480381668223 26.917708280233555 H 0.0 **** 0.06
32939 H 93.13298105178811 157.12677346693442 27.927162597204756 H 0.0 **** 0.06
32940 H 93.53871336181783 158.1413187320042 26.521885153516052 H 0.0 **** 0.06
32941 C 21.006450515975686 36.52623926148357 90.46417208106573 C 0.0 **** -0.24
32942 H 20.094201665915577 36.29898467967706 89.91087549375368 H 0.0 **** 0.06
32943 H 21.678779617116362 35.66880338914527 90.42366278112604 H 0.0 **** 0.06
32944 H 20.756067675954753 36.74325730821289 91.50252234955423 H 0.0 **** 0.06
32945 H 21.494751422667292 37.39325092495591 90.01888151372577 H 0.0 **** 0.06
32946 C 20.035174518642663 25.767891528695785 155.08914717008076 C 0.0 **** -0.24
32947 H 19.1680911989059 25.926249785255024 154.44922152979842 H 0.0 **** 0.06
32948 H 19.728311476681426 25.241743105600378 155.99294503862467 H 0.0 **** 0.06
32949 H 20.46847157270264 26.730756727848174 155.35876531040972 H 0.0 **** 0.06
32950 H 20.777208188005204 25.17301552784653 154.5558664969953 H 0.0 **** 0.06
32951 C 113.76564502293462 168.68177410506826 179.6954331244261 C 0.0 **** -0.24
32952 H 114.09887913705657 168.5156700314251 180.7192783852619 H 0.0 **** 0.06
32953 H 114.45768689885162 169.35786242526146 179.1926535277884 H 0.0 **** 0.06
32954 H 112.76874435713711 169.1242589317262 179.70454121398427 H 0.0 **** 0.06
32955 H 113.73594633327295 167.730607512733 179.16366175455775 H 0.0 **** 0.06
32956 C 161.05533776606336 49.7986579030666 118.65745476607265 C 0.0 **** -0.24
32957 H 161.7810120284401 50.52868239996782 119.01630401814214 H 0.0 **** 0.06
32958 H 160.38787149012984 50.272330470928594 117.93847025756747 H 0.0 **** 0.06
32959 H 160.47484380704498 49.419969369660066 119.49850674595189 H 0.0 **** 0.06
32960 H 161.5794107587062 48.97216578467214 118.17731628326044 H 0.0 **** 0.06
32961 C 82.72799732381014 181.5428702517003 58.264129485501655 C 0.0 **** -0.24
32962 H 83.14174296555234 180.53675349036362 58.20546720807167 H 0.0 **** 0.06
32963 H 81.84892801828983 181.61176630446812 57.623376669103095 H 0.0 **** 0.06
32964 H 83.47678104126317 182.26312150379601 57.931917508826416 H 0.0 **** 0.06
32965 H 82.44718407240128 181.76049863738268 59.29415641031534 H 0.0 **** 0.06
32966 C 29.998297248819682 70.73207487593662 94.21449315391922 C 0.0 **** -0.24
32967 H 29.138286248572598 70.89514660880695 93.56578339703856 H 0.0 **** 0.06
32968 H 30.625566427847588 71.62368454488403 94.21678769317901 H 0.0 **** 0.06
32969 H 30.574487858997543 69.88296785069218 93.84572718281473 H 0.0 **** 0.06
32970 H 29.65582319153151 70.5254827423634 95.22793820412966 H 0.0 **** 0.06
32971 C 14.77081286499579 97.71555328839816 108.91161818056673 C 0.0 **** -0.24
32972 H 15.8560171364187 97.75469578654534 109.00012927242608 H 0.0 **** 0.06
32973 H 14.331154094962393 97.55220523941753 109.89578700413728 H 0.0 **** 0.06
32974 H 14.489805282927321 96.89746893137655 108.24792667152883 H 0.0 **** 0.06
32975 H 14.405383616081608 98.65744478388478 108.5024133931272 H 0.0 **** 0.06
32976 C 12.422187622542928 105.58334356428202 33.22579516622554 C 0.0 **** -0.24
32977 H 12.797901490426703 105.02854083918487 34.08531171645373 H 0.0 **** 0.06
32978 H 13.06241262410554 105.39332698843731 32.3634991834672 H 0.0 **** 0.06
32979 H 12.42376607102991 106.64998575101981 33.452485832632306 H 0.0 **** 0.06
32980 H 11.405234477696922 105.26087430756695 33.00137018632293 H 0.0 **** 0.06
32981 C 104.14670544969175 181.89541807937323 74.66053379126208 C 0.0 **** -0.24
32982 H 103.6684805870583 181.6994315170174 75.6202404815748 H 0.0 **** 0.06
32983 H 103.40167224433225 182.25274376159396 73.94914671114748 H 0.0 **** 0.06
32984 H 104.59636554525844 180.9756050413941 74.28465550388925 H 0.0 **** 0.06
32985 H 104.92107234845659 182.6517928477614 74.78814177154325 H 0.0 **** 0.06
32986 C 116.15564298372638 137.93248681081454 32.60363542667835 C 0.0 **** -0.24
32987 H 115.34810721608463 137.44628414658223 32.055375764581285 H 0.0 **** 0.06
32988 H 116.059230384192 137.7071558581305 33.665655318950044 H 0.0 **** 0.06
32989 H 116.09922740194509 139.00965571518927 32.45296003275273 H 0.0 **** 0.06
32990 H 117.11471635556231 137.5638128130242 32.2387896381742 H 0.0 **** 0.06
32991 C 119.02074632294736 104.6310911096225 128.97157118218672 C 0.0 **** -0.24
32992 H 118.50355337182026 105.5416648302496 128.66811666129982 H 0.0 **** 0.06
32993 H 118.79412822651923 103.83235726547593 128.26501320386996 H 0.0 **** 0.06
32994 H 118.6881760521614 104.34064748546086 129.9680671408011 H 0.0 **** 0.06
32995 H 120.09563447823032 104.8115736046442 128.98557854067755 H 0.0 **** 0.06
32996 C 92.39819964419965 52.124790658677256 19.603325280220787 C 0.0 **** -0.24
32997 H 93.00012849049577 51.28351317224951 19.948502859428686 H 0.0 **** 0.06
32998 H 93.05459033264583 52.90641150837621 19.219711135701147 H 0.0 **** 0.06
32999 H 91.81194615697598 52.517591771418154 20.43307511096151 H 0.0 **** 0.06
33000 H 91.72920436548745 51.79127485370057 18.809906594080303 H 0.0 **** 0.06
33001 C 70.56902098967373 61.84517627600792 104.80186961903894 C 0.0 **** -0.24
33002 H 70.29982788350601 61.698737558351354 105.84759685015604 H 0.0 **** 0.06
33003 H 71.61706955573572 61.580773043725856 104.65589753562449 H 0.0 **** 0.06
33004 H 70.41603540313753 62.8900934946912 104.53065178376858 H 0.0 **** 0.06
33005 H 69.94294337262926 61.21220476044891 104.17419173356632 H 0.0 **** 0.06
33006 C 118.28343296940477 127.82440668142527 105.34130966511037 C 0.0 **** -0.24
33007 H 118.03501427029465 128.35432026846144 104.42107575488473 H 0.0 **** 0.06
33008 H 119.2605004066661 127.35227922098971 105.23592665524177 H 0.0 **** 0.06
33009 H 117.53003560934553 127.06204869159535 105.53694548298199 H 0.0 **** 0.06
33010 H 118.3090082804107 128.53181827795322 106.17078808007574 H 0.0 **** 0.06
33011 C 5.389284061300486 185.32456254224743 87.5745121681743 C 0.0 **** -0.24
33012 H 6.085510752683547 185.91150376698982 88.17364994640417 H 0.0 **** 0.06
33013 H 5.381543629334516 185.70262094119727 86.55240082084961 H 0.0 **** 0.06
33014 H 4.388505010934523 185.40320809560092 88.00024432675366 H 0.0 **** 0.06
33015 H 5.703592808686665 184.2802923058023 87.57388557656506 H 0.0 **** 0.06
33016 C 2.9747811710576784 67.45340849468953 92.99458867814565 C 0.0 **** -0.24
33017 H 1.8911009315886815 67.39342312178636 92.89845566346332 H 0.0 **** 0.06
33018 H 3.38462853524711 68.00148960427784 92.14626626543406 H 0.0 **** 0.06
33019 H 3.394327860800601 66.44718228121683 93.01441497649125 H 0.0 **** 0.06
33020 H 3.2291519997316627 67.9712381820484 93.92016774554747 H 0.0 **** 0.06
33021 C 22.91622094757477 155.1441710039305 108.93863723139998 C 0.0 **** -0.24
33022 H 23.207931604365626 154.36440215700242 108.23517641655616 H 0.0 **** 0.06
33023 H 23.339384375550594 156.09785061497809 108.62086431505344 H 0.0 **** 0.06
33024 H 23.289667444935617 154.89435154727164 109.93214146025574 H 0.0 **** 0.06
33025 H 21.829405838475623 155.22020738460637 108.968015173841 H 0.0 **** 0.06
33026 C 179.31962169826025 74.46207040607783 100.90662615566333 C 0.0 **** -0.24
33027 H 178.61893352692076 75.29076403130216 100.80601483281657 H 0.0 **** 0.06
33028 H 179.4679286241272 73.99329148177407 99.93307282399584 H 0.0 **** 0.06
33029 H 178.9172561241859 73.72908856545558 101.60553332995863 H 0.0 **** 0.06
33030 H 180.27298734470742 74.83500829121095 101.27870937793352 H 0.0 **** 0.06
33031 C 131.0876982722849 196.97633978401012 37.63824200622054 C 0.0 **** -0.24
33032 H 130.09130101017396 197.12511663896 38.05426318831729 H 0.0 **** 0.06
33033 H 131.13059073690937 196.01080846595548 37.134198165154544 H 0.0 **** 0.06
33034 H 131.82397755995834 196.99853233451972 38.442971171022265 H 0.0 **** 0.06
33035 H 131.30623480407823 197.76951179721493 36.924593225370984 H 0.0 **** 0.06
33036 C 194.8856321687712 17.989398959024683 189.95948312761965 C 0.0 **** -0.24
33037 H 195.36706194715205 18.903314135272836 190.3089385951186 H 0.0 **** 0.06
33038 H 193.83055491602934 18.006696661546528 190.23524478824257 H 0.0 **** 0.06
33039 H 195.3676584408352 17.12734976131661 190.41929995019925 H 0.0 **** 0.06
33040 H 194.97702364331633 17.92222131334819 188.8758644572115 H 0.0 **** 0.06
33041 C 91.20413340758185 93.9970828309755 134.08933655681443 C 0.0 **** -0.24
33042 H 90.57720641714309 93.5763160636368 133.30430883715448 H 0.0 **** 0.06
33043 H 91.45504563341996 93.21845066300756 134.81034606118632 H 0.0 **** 0.06
33044 H 90.66498182694605 94.79973785822358 134.59345081330858 H 0.0 **** 0.06
33045 H 92.11903323536959 94.39430680676537 133.6505437986385 H 0.0 **** 0.06
33046 C 168.01730916433328 80.36213434033078 186.40206828309675 C 0.0 **** -0.24
33047 H 167.37087640149377 80.93219921334702 187.06920725074613 H 0.0 **** 0.06
33048 H 168.1689812056852 79.36320325807637 186.81090928557478 H 0.0 **** 0.06
33049 H 168.97855090182549 80.8678898670477 186.3085302654581 H 0.0 **** 0.06
33050 H 167.54929018121692 80.28660409146681 185.42051385398727 H 0.0 **** 0.06
33051 C 140.85407096285292 181.72354024123223 6.383755786043629 C 0.0 **** -0.24
33052 H 141.60418021623786 182.19117732014223 7.0219268945568984 H 0.0 **** 0.06
33053 H 141.0012644120859 182.04660645167408 5.3530831904557346 H 0.0 **** 0.06
33054 H 139.8589049310807 182.0155317424123 6.718176480256183 H 0.0 **** 0.06
33055 H 140.95390689653988 180.63988602131627 6.442270669563264 H 0.0 **** 0.06
33056 C 6.057551043498563 145.60134622227582 44.715201154262814 C 0.0 **** -0.24
33057 H 5.265150688931989 145.3756685229912 45.42867219883027 H 0.0 **** 0.06
33058 H 7.020319503614203 145.59396347252522 45.227577090375206 H 0.0 **** 0.06
33059 H 5.884974398310803 146.58576297465788 44.28034757160103 H 0.0 **** 0.06
33060 H 6.059661006510517 144.8508944404066 43.924622660043724 H 0.0 **** 0.06
33061 C 6.674682438604577 0.10729640505194027 55.42354673247647 C 0.0 **** -0.24
33062 H 6.329958010484148 -0.9154163861169735 55.266883641452694 H 0.0 **** 0.06
33063 H 7.459755361021536 0.1131202484341216 56.18101047113993 H 0.0 **** 0.06
33064 H 5.841000250229513 0.7236786994092128 55.75839973936206 H 0.0 **** 0.06
33065 H 7.069240122562519 0.5044121218125852 54.48889492620086 H 0.0 **** 0.06
33066 C 86.22842674656937 106.28361103700038 61.522905899933164 C 0.0 **** -0.24
33067 H 86.95076221564534 105.66608772961897 62.05857292265961 H 0.0 **** 0.06
33068 H 86.64951095235767 106.58398916937696 60.563249836701004 H 0.0 **** 0.06
33069 H 86.0000415503921 107.17006361395715 62.11428877458712 H 0.0 **** 0.06
33070 H 85.31525913623727 105.7123559113185 61.356824075452494 H 0.0 **** 0.06
33071 C 145.04861767302998 23.25041101403329 10.724333444026684 C 0.0 **** -0.24
33072 H 144.33365538885874 24.07144926479515 10.780661170778188 H 0.0 **** 0.06
33073 H 145.8346061732356 23.50303922797991 10.012946252640177 H 0.0 **** 0.06
33074 H 144.53768303702464 22.34632289926941 10.39574536754759 H 0.0 **** 0.06
33075 H 145.487352970818 23.08338689794192 11.70766499985561 H 0.0 **** 0.06
33076 C 78.04996053749572 144.89588882717155 198.37979027118251 C 0.0 **** -0.24
33077 H 77.02660450136571 144.64601500329545 198.65976380083399 H 0.0 **** 0.06
33078 H 78.60119483030428 143.98035857163205 198.16491404948974 H 0.0 **** 0.06
33079 H 78.53104764109298 145.4257296466859 199.20199376732094 H 0.0 **** 0.06
33080 H 78.03903435523303 145.5313629536383 197.4949688719605 H 0.0 **** 0.06
33081 C 146.7924601174218 132.11941666651117 171.39418946587205 C 0.0 **** -0.24
33082 H 147.39384888772128 132.92348149304422 170.9696261709629 H 0.0 **** 0.06
33083 H 147.36985427447772 131.1936917424013 171.392168747005 H 0.0 **** 0.06
33084 H 145.89072062529755 131.9858551536538 170.79671068821526 H 0.0 **** 0.06
33085 H 146.5160378766433 132.37273993721283 172.41724700519984 H 0.0 **** 0.06
33086 C 151.88176186714696 40.41794696298328 27.659679008186444 C 0.0 **** -0.24
33087 H 151.69954147497543 39.81910738507895 28.55278963979434 H 0.0 **** 0.06
33088 H 152.95162979938664 40.44398300775359 27.452576579184566 H 0.0 **** 0.06
33089 H 151.5169388611605 41.43218062734465 27.822433221679233 H 0.0 **** 0.06
33090 H 151.35824493152083 39.97472917138214 26.812996261153586 H 0.0 **** 0.06
33091 C 29.584065485994046 68.14527982727813 161.692616068902 C 0.0 **** -0.24
33092 H 28.871185498038102 68.95411006099704 161.53599093390721 H 0.0 **** 0.06
33093 H 30.161540381286713 67.98796356671215 160.78118585231283 H 0.0 **** 0.06
33094 H 29.046681963272604 67.23134188032446 161.9458887743103 H 0.0 **** 0.06
33095 H 30.257059331449412 68.40786591303453 162.5096194600912 H 0.0 **** 0.06
33096 C 150.20201139472636 150.66632998271308 24.7327733461687 C 0.0 **** -0.24
33097 H 149.83058307320402 150.86707000208608 23.72787527752982 H 0.0 **** 0.06
33098 H 149.93010531032496 149.65206970623055 25.024812473209664 H 0.0 **** 0.06
33099 H 149.76141343454375 151.37725720677577 25.431670763341685 H 0.0 **** 0.06
33100 H 151.28752419389747 150.76958910577252 24.746492754356723 H 0.0 **** 0.06
33101 C 116.75012691844876 87.95620154465095 56.25532567967633 C 0.0 **** -0.24
33102 H 115.68584636518989 88.12965214966343 56.09127535737343 H 0.0 **** 0.06
33103 H 116.98653425540294 88.11849695739247 57.30632064856343 H 0.0 **** 0.06
33104 H 117.32924528935456 88.64464781337963 55.63970701958462 H 0.0 **** 0.06
33105 H 116.99569272711528 86.92979785955399 55.98069207728662 H 0.0 **** 0.06
33106 C 37.16733604767191 191.50791425749514 3.5355983958628485 C 0.0 **** -0.24
33107 H 37.51533984219026 191.6555763447392 4.557845403658874 H 0.0 **** 0.06
33108 H 37.968974728372984 191.75811597523546 2.839950330341104 H 0.0 **** 0.06
33109 H 36.30883221721723 192.1512476517924 3.34778477102725 H 0.0 **** 0.06
33110 H 36.87850259145384 190.46589528662633 3.3967085465011593 H 0.0 **** 0.06
33111 C 165.07721068124033 97.81859995188913 85.62704781525412 C 0.0 **** -0.24
33112 H 164.92198306062636 97.16301431618152 84.77059085349143 H 0.0 **** 0.06
33113 H 165.91857536677318 97.45363551324778 86.21602073841453 H 0.0 **** 0.06
33114 H 164.17897835567786 97.82818828340203 86.24447994615713 H 0.0 **** 0.06
33115 H 165.28909378696977 98.82908260925154 85.2784133098881 H 0.0 **** 0.06
33116 C 186.11682039705954 19.386791139276923 90.51559181564272 C 0.0 **** -0.24
33117 H 185.64922302731972 18.647886271953453 89.86369687667263 H 0.0 **** 0.06
33118 H 186.00699993225487 19.075390842933004 91.55451000747624 H 0.0 **** 0.06
33119 H 185.6358784004571 20.354389392105006 90.37232598297282 H 0.0 **** 0.06
33120 H 187.17631400655563 19.467763896840623 90.27052772457537 H 0.0 **** 0.06
33121 C 176.69730809418957 129.9977024964431 43.34496293618463 C 0.0 **** -0.24
33122 H 175.65479567869212 130.2341434130353 43.554639373900216 H 0.0 **** 0.06
33123 H 176.94280740392082 129.02669421113836 43.7746612883974 H 0.0 **** 0.06
33124 H 177.33803607882888 130.76258342742037 43.78317234122292 H 0.0 **** 0.06
33125 H 176.852397452309 129.96810692763657 42.266351754813456 H 0.0 **** 0.06
33126 C 31.799417086182928 47.33112333972417 41.18999412528916 C 0.0 **** -0.24
33127 H 31.42626198621258 47.17605171490095 40.177481037508585 H 0.0 **** 0.06
33128 H 30.966392901031924 47.5655853471348 41.85211038322359 H 0.0 **** 0.06
33129 H 32.50946848942746 48.15875482581737 41.1909067653628 H 0.0 **** 0.06
33130 H 32.29747005003358 46.42492426153768 41.53637712531736 H 0.0 **** 0.06
33131 C 59.756195345976494 115.88340871765183 142.9297942556626 C 0.0 **** -0.24
33132 H 58.76969256024097 115.76676851252535 143.3803084445193 H 0.0 **** 0.06
33133 H 59.75806167223209 115.43133098684598 141.9385294573916 H 0.0 **** 0.06
33134 H 60.500826497644994 115.39139477830179 143.55578021435042 H 0.0 **** 0.06
33135 H 59.99399327735557 116.94351966795278 142.84673655595208 H 0.0 **** 0.06
33136 C 190.70480229413738 106.53571919552599 123.6745036105689 C 0.0 **** -0.24
33137 H 190.7551091718862 107.20630418942187 122.81624684138114 H 0.0 **** 0.06
33138 H 191.5933309816731 105.90387147409422 123.69371121058643 H 0.0 **** 0.06
33139 H 189.8152144042889 105.91095492364127 123.59489411561987 H 0.0 **** 0.06
33140 H 190.65637984988882 107.12342784033865 124.59104302123589 H 0.0 **** 0.06
33141 C 194.32812541933072 72.30510696601442 64.56562216832413 C 0.0 **** -0.24
33142 H 195.20646746403554 72.7528002961871 64.0996086082726 H 0.0 **** 0.06
33143 H 193.54082142483423 72.18986624155119 63.820572719830636 H 0.0 **** 0.06
33144 H 193.97644407667113 72.94962822432849 65.37058567089758 H 0.0 **** 0.06
33145 H 194.59103896488526 71.32761598298784 64.97096097167059 H 0.0 **** 0.06
33146 C 11.878500958902691 129.0987098142013 32.78423180630972 C 0.0 **** -0.24
33147 H 12.600950141846397 129.86718399589623 33.060197934938344 H 0.0 **** 0.06
33148 H 12.305085268034048 128.4599571055471 32.010828620796644 H 0.0 **** 0.06
33149 H 10.97198808985695 129.57110581084018 32.40682604737606 H 0.0 **** 0.06
33150 H 11.63697673057834 128.49671570437232 33.66107264315414 H 0.0 **** 0.06
33151 C 181.635562474992 163.41431741709175 169.83947986162246 C 0.0 **** -0.24
33152 H 182.21693138094588 162.78248924700355 169.16839489747383 H 0.0 **** 0.06
33153 H 182.26491727427324 164.22344670467055 170.21174595210155 H 0.0 **** 0.06
33154 H 181.27500434391052 162.81898473474175 170.67753504163747 H 0.0 **** 0.06
33155 H 180.78677665229978 163.83352995809142 169.29859986705787 H 0.0 **** 0.06
33156 C 193.72068430918648 45.483416915264655 154.8279855894532 C 0.0 **** -0.24
33157 H 193.88786507362002 44.59295799540078 154.2214930509266 H 0.0 **** 0.06
33158 H 194.48389981736656 45.543423192338594 155.6037336235442 H 0.0 **** 0.06
33159 H 192.73508153724885 45.42717637334627 155.29158012118393 H 0.0 **** 0.06
33160 H 193.77394842585554 46.36920431592716 154.1957733810724 H 0.0 **** 0.06
33161 C 12.236116095620076 170.27149213771963 162.7512674619985 C 0.0 **** -0.24
33162 H 13.066213698974138 169.6140545248901 162.48864704575328 H 0.0 **** 0.06
33163 H 12.087893795788773 171.00276964519517 161.95614353597063 H 0.0 **** 0.06
33164 H 12.463373196695159 170.7879351329076 163.68397134279303 H 0.0 **** 0.06
33165 H 11.329189299303636 169.67922725360924 162.87482224902354 H 0.0 **** 0.06
33166 C 186.0414498349174 125.40229154811277 152.25069882556758 C 0.0 **** -0.24
33167 H 185.1908442278449 125.98356166373162 152.60614056269114 H 0.0 **** 0.06
33168 H 186.24996452125066 125.66377247448054 151.21324664148273 H 0.0 **** 0.06
33169 H 185.80816485591916 124.33942876523327 152.31813410896646 H 0.0 **** 0.06
33170 H 186.91411419579887 125.62316035872902 152.864237361416 H 0.0 **** 0.06
33171 C 18.193809547675926 31.417038171639035 150.1502543379439 C 0.0 **** -0.24
33172 H 18.33746630717215 32.08442077775345 149.30045737585496 H 0.0 **** 0.06
33173 H 17.597506913149914 30.55875817875284 149.84187423597953 H 0.0 **** 0.06
33174 H 17.678033227369326 31.95152382474413 150.94829228589342 H 0.0 **** 0.06
33175 H 19.163938759667246 31.07493805594254 150.51132706613072 H 0.0 **** 0.06
33176 C 197.45517109119203 96.0453710801645 136.534429785655 C 0.0 **** -0.24
33177 H 196.8937186797533 95.40588836494328 135.85292502407447 H 0.0 **** 0.06
33178 H 197.8366732930104 95.44710437366996 137.36104678964557 H 0.0 **** 0.06
33179 H 196.80048287596486 96.82562776968302 136.9218462396276 H 0.0 **** 0.06
33180 H 198.28852353126769 96.50189702127216 136.0000540137853 H 0.0 **** 0.06
33181 C 56.09714314458944 186.84166608148132 120.7458976530601 C 0.0 **** -0.24
33182 H 55.43264535223281 186.30977346945514 120.06534449192623 H 0.0 **** 0.06
33183 H 55.50452545647525 187.44177618081423 121.43728166610768 H 0.0 **** 0.06
33184 H 56.7587360872099 187.49218454234614 120.17427524052508 H 0.0 **** 0.06
33185 H 56.69276166546737 186.12161758190416 121.30781529579042 H 0.0 **** 0.06
33186 C 115.73610969937565 99.44966762837214 53.423815702365985 C 0.0 **** -0.24
33187 H 114.91286032200904 99.09536236413632 54.04479472108753 H 0.0 **** 0.06
33188 H 116.58676975412817 99.69921209862378 54.05752912155921 H 0.0 **** 0.06
33189 H 115.41919538381987 100.3361851553812 52.87431531339175 H 0.0 **** 0.06
33190 H 116.02170550034998 98.66904519139362 52.719824723795185 H 0.0 **** 0.06
33191 C 185.49764989829347 199.053265718258 84.79976483975969 C 0.0 **** -0.24
33192 H 185.64097437437283 199.23400752765224 85.86590658145838 H 0.0 **** 0.06
33193 H 184.43900338985526 199.14549463768844 84.55593684372934 H 0.0 **** 0.06
33194 H 185.8427913229903 198.0499217527929 84.55193234052322 H 0.0 **** 0.06
33195 H 186.0673213691007 199.78541324777018 84.22764851595221 H 0.0 **** 0.06
33196 C 101.14944625700807 93.63932420968274 66.79916902041265 C 0.0 **** -0.24
33197 H 101.48074810154014 94.59479771173054 67.20497826283736 H 0.0 **** 0.06
33198 H 101.24026784584981 92.86901368707206 67.56593420709618 H 0.0 **** 0.06
33199 H 101.76864410289585 93.37456150434826 65.94253700897627 H 0.0 **** 0.06
33200 H 100.10884445845988 93.71939301539035 66.48610106028696 H 0.0 **** 0.06
33201 C 161.664830413773 194.64394651353018 160.5494991290083 C 0.0 **** -0.24
33202 H 160.60190102185396 194.5626710191181 160.77711742133368 H 0.0 **** 0.06
33203 H 162.2129872417518 194.8900857343617 161.4593844385975 H 0.0 **** 0.06
33204 H 161.8192774923242 195.42952531179418 159.809216241504 H 0.0 **** 0.06
33205 H 162.02537345401652 193.6956801055111 160.15274456289242 H 0.0 **** 0.06
33206 C 185.74536553386025 193.3108360445287 160.66295847870808 C 0.0 **** -0.24
33207 H 185.2729534998753 192.83875208618923 159.8014538115997 H 0.0 **** 0.06
33208 H 185.94505073493374 194.35849435093817 160.43918277936945 H 0.0 **** 0.06
33209 H 186.6833378972472 192.8014894396096 160.88659565920895 H 0.0 **** 0.06
33210 H 185.0806019905061 193.24295066670584 161.52474308798705 H 0.0 **** 0.06
33211 C 25.927596739750783 12.570857662515436 174.08763302744248 C 0.0 **** -0.24
33212 H 26.96308419706989 12.232356591463372 174.13139884281264 H 0.0 **** 0.06
33213 H 25.579629999079373 12.804053118706435 175.09429917112251 H 0.0 **** 0.06
33214 H 25.30572465349411 11.783173192283186 173.66072789219115 H 0.0 **** 0.06
33215 H 25.862651400940877 13.46325151431941 173.46449338374805 H 0.0 **** 0.06
33216 C 121.04410896942932 65.37143908874162 17.523311157149692 C 0.0 **** -0.24
33217 H 120.3137272630095 64.74727583278809 18.037745279312617 H 0.0 **** 0.06
33218 H 120.64412502989674 65.6764744424625 16.555288943235553 H 0.0 **** 0.06
33219 H 121.96397048424706 64.8052065354077 17.37411601193446 H 0.0 **** 0.06
33220 H 121.25445896539608 66.25567637612988 18.124446722407527 H 0.0 **** 0.06
33221 C 112.5204307338588 61.0862402632105 180.1415649902174 C 0.0 **** -0.24
33222 H 111.86673818794878 61.846158862272844 179.71334254579654 H 0.0 **** 0.06
33223 H 111.91515248031237 60.29367454073865 180.58060311593735 H 0.0 **** 0.06
33224 H 113.14550723709772 61.53684548245609 180.9114545596321 H 0.0 **** 0.06
33225 H 113.15261948499085 60.66886649744012 179.3580758731057 H 0.0 **** 0.06
33226 C 192.995861929359 67.60110617901205 138.50768679478313 C 0.0 **** -0.24
33227 H 192.202280568735 66.85472653761556 138.46520445323824 H 0.0 **** 0.06
33228 H 192.55981326052142 68.58306724972329 138.6932904374769 H 0.0 **** 0.06
33229 H 193.53292388946016 67.61424813617526 137.5593469721651 H 0.0 **** 0.06
33230 H 193.68591753015104 67.35142674326585 139.31378488684288 H 0.0 **** 0.06
33231 C 36.46167499943482 139.60350646097106 0.8483212162635141 C 0.0 **** -0.24
33232 H 36.00466631605721 139.5662880557411 1.8377657880398885 H 0.0 **** 0.06
33233 H 35.846529647323734 139.04312956850322 0.1438606927279693 H 0.0 **** 0.06
33234 H 37.457129293033546 139.1626492969557 0.8920747657855941 H 0.0 **** 0.06
33235 H 36.536347266148454 140.6400364830631 0.5218626207667683 H 0.0 **** 0.06
33236 C 180.70285914744687 147.77296159302773 188.85424065417575 C 0.0 **** -0.24
33237 H 181.63784112281843 147.29570871252344 188.55838578071396 H 0.0 **** 0.06
33238 H 180.47217074191758 148.58090689882616 188.16022414501458 H 0.0 **** 0.06
33239 H 180.80525876274166 148.17673515187667 189.86212752350735 H 0.0 **** 0.06
33240 H 179.8984415988127 147.0372140196061 188.83731106818132 H 0.0 **** 0.06
33241 C 113.52579868443672 171.26194444732164 27.1742408992325 C 0.0 **** -0.24
33242 H 112.77622757967464 170.5766903875064 27.568911261851127 H 0.0 **** 0.06
33243 H 114.0542085099047 170.78526990404558 26.348858497189667 H 0.0 **** 0.06
33244 H 114.23488313090127 171.51780303393195 27.96135544460543 H 0.0 **** 0.06
33245 H 113.03581487143276 172.16912288557302 26.817113638409523 H 0.0 **** 0.06
33246 C 198.34337160587978 180.09834679584282 175.95350570211082 C 0.0 **** -0.24
33247 H 199.32205854719328 180.41568326260534 175.59336111591912 H 0.0 **** 0.06
33248 H 197.95989149837914 180.8357654061016 176.65995918396044 H 0.0 **** 0.06
33249 H 198.4351614003656 179.13220131326324 176.45106097644688 H 0.0 **** 0.06
33250 H 197.65759481039382 180.00987748583321 175.11176107402193 H 0.0 **** 0.06
33251 C 32.38624705077103 144.07504323296445 133.21296701249673 C 0.0 **** -0.24
33252 H 31.33921956325628 143.79491832336834 133.3241926221748 H 0.0 **** 0.06
33253 H 32.989984107234335 143.51694005143472 133.9290082826186 H 0.0 **** 0.06
33254 H 32.497725515009535 145.14345721651796 133.39627762842247 H 0.0 **** 0.06
33255 H 32.718155961850414 143.84331542485458 132.20048866760857 H 0.0 **** 0.06
33256 C 15.793653962967667 113.98056177721918 49.813018427198244 C 0.0 **** -0.24
33257 H 15.863806295798 113.14524628617582 50.51033570128209 H 0.0 **** 0.06
33258 H 15.09382461722781 114.71968933752862 50.202823528449926 H 0.0 **** 0.06
33259 H 15.439363042522785 113.61817234579544 48.848455050753614 H 0.0 **** 0.06
33260 H 16.775964005342402 114.43730073391134 49.692154083846134 H 0.0 **** 0.06
33261 C 75.50422394958332 136.4134102372011 3.8754172150616952 C 0.0 **** -0.24
33262 H 76.42601449849093 135.86155042827977 4.058183754164787 H 0.0 **** 0.06
33263 H 75.15885956537451 136.86336029577262 4.806547218293275 H 0.0 **** 0.06
33264 H 74.74251370602228 135.73130887855484 3.496351328316102 H 0.0 **** 0.06
33265 H 75.69042975741462 137.19553795985894 3.1398097842850063 H 0.0 **** 0.06
33266 C 156.35789258770234 186.15159149210194 157.21439977372276 C 0.0 **** -0.24
33267 H 157.17211284561142 186.72033348734308 156.765819137775 H 0.0 **** 0.06
33268 H 155.60094785303988 185.941746418817 156.4589751336659 H 0.0 **** 0.06
33269 H 155.9129334717978 186.73155745681237 158.02305888057828 H 0.0 **** 0.06
33270 H 156.74603043426526 185.21350444256896 157.61122641407428 H 0.0 **** 0.06
33271 C 89.53720205300431 0.024843576524880007 76.6521937002228 C 0.0 **** -0.24
33272 H 89.82203932462792 0.9236075279859222 77.19923645169038 H 0.0 **** 0.06
33273 H 88.46456417968787 0.04580125699443016 76.45371322246145 H 0.0 **** 0.06
33274 H 89.77954929836329 -0.8552170802593935 77.24862370792758 H 0.0 **** 0.06
33275 H 90.08084908036264 -0.014336533237504057 75.70842863199546 H 0.0 **** 0.06
33276 C 142.27309990531379 128.59409331409114 89.91426636581281 C 0.0 **** -0.24
33277 H 143.30231615800486 128.2489041783138 89.81528631215275 H 0.0 **** 0.06
33278 H 141.93515051288935 128.44039306567012 90.93860620326342 H 0.0 **** 0.06
33279 H 141.63447584112365 128.03216194052942 89.2319965218793 H 0.0 **** 0.06
33280 H 142.2201247713634 129.65536374128217 89.66953709261858 H 0.0 **** 0.06
33281 C 55.06758703903989 198.4610040832241 193.13356873375704 C 0.0 **** -0.24
33282 H 54.02128329466598 198.70673956868296 192.95813732060412 H 0.0 **** 0.06
33283 H 55.556255012920246 199.29376518669028 193.64084604544297 H 0.0 **** 0.06
33284 H 55.563107770926024 198.27537084794 192.18050515062004 H 0.0 **** 0.06
33285 H 55.13201275353191 197.56803948974053 193.75559305158063 H 0.0 **** 0.06
33286 C 75.47756840329104 191.49679056599575 117.70342785146858 C 0.0 **** -0.24
33287 H 74.98481966297246 190.55979631694083 117.44278412663687 H 0.0 **** 0.06
33288 H 74.82368375028202 192.08324874857243 118.34857073056904 H 0.0 **** 0.06
33289 H 75.6909871395801 192.05906668055377 116.79417227474624 H 0.0 **** 0.06
33290 H 76.40962533693865 191.2844719250307 118.22665948105413 H 0.0 **** 0.06
33291 C 89.18732661769081 124.57442652352262 73.94875710228045 C 0.0 **** -0.24
33292 H 89.53568907000431 124.19122558187513 72.98972044020891 H 0.0 **** 0.06
33293 H 88.36349043129619 125.26988446591884 73.78351817040992 H 0.0 **** 0.06
33294 H 90.00438276646591 125.09233359581489 74.4511067791805 H 0.0 **** 0.06
33295 H 88.84561941585608 123.74580270015576 74.56878244340668 H 0.0 **** 0.06
33296 C 83.7004514295894 154.7479735676536 143.86130471899276 C 0.0 **** -0.24
33297 H 83.87842105520932 154.0096039667216 144.64233468031887 H 0.0 **** 0.06
33298 H 82.63313227086755 154.96119416835364 143.79884288628432 H 0.0 **** 0.06
33299 H 84.05024715368265 154.35584709898393 142.9056245971272 H 0.0 **** 0.06
33300 H 84.24225420047705 155.66388560757377 144.09737584490335 H 0.0 **** 0.06
33301 C 92.65595538574158 165.2868976774029 79.37669841047287 C 0.0 **** -0.24
33302 H 93.6577016392983 165.61517127969412 79.10197029342547 H 0.0 **** 0.06
33303 H 92.64515717904419 164.20123041697056 79.47985707191472 H 0.0 **** 0.06
33304 H 91.95019080725336 165.58488607385425 78.6022573691514 H 0.0 **** 0.06
33305 H 92.37134500275562 165.74383051295786 80.32430855633018 H 0.0 **** 0.06
33306 C 188.3573340203116 3.7944254783044116 85.76420044218412 C 0.0 **** -0.24
33307 H 187.6616493628382 4.150715609855858 86.52349937399688 H 0.0 **** 0.06
33308 H 189.36712807295555 4.1196584020443865 86.01555519251343 H 0.0 **** 0.06
33309 H 188.07599685399026 4.201619735217747 84.79298372030544 H 0.0 **** 0.06
33310 H 188.32522610520664 2.7053369079797562 85.72411473214271 H 0.0 **** 0.06
33311 C 196.75519217083448 68.76766730007722 182.47043624557648 C 0.0 **** -0.24
33312 H 197.11935806888167 68.86911971622234 183.49267901698553 H 0.0 **** 0.06
33313 H 197.5993949897478 68.61934029063343 181.79659991914806 H 0.0 **** 0.06
33314 H 196.21741021193128 69.67235281341038 182.18553207777097 H 0.0 **** 0.06
33315 H 196.08375463981642 67.91164954756039 182.40668734705145 H 0.0 **** 0.06
33316 C 7.464903006272863 48.229136836195494 10.656512772000212 C 0.0 **** -0.24
33317 H 6.992626906831106 47.472128667126185 11.282768793549252 H 0.0 **** 0.06
33318 H 8.508344450862921 47.962270085270944 10.487954836181132 H 0.0 **** 0.06
33319 H 7.413271090006532 49.19669623437173 11.156259356746716 H 0.0 **** 0.06
33320 H 6.945171163981314 48.28527911578513 9.700457584335112 H 0.0 **** 0.06
33321 C 52.71935111072955 51.52066834630614 114.33476915238245 C 0.0 **** -0.24
33322 H 51.877654881864814 51.46415615855085 113.64505798314286 H 0.0 **** 0.06
33323 H 53.55250232828571 50.93825010341402 113.93902964012551 H 0.0 **** 0.06
33324 H 52.42362636061256 51.119243182201615 115.30333167592065 H 0.0 **** 0.06
33325 H 53.025549983091736 52.560533646936506 114.44964775426956 H 0.0 **** 0.06
33326 C 108.05893565559924 132.6030040840147 170.1489757104898 C 0.0 **** -0.24
33327 H 107.98763075890432 133.57627024148823 169.66251882693908 H 0.0 **** 0.06
33328 H 109.06861206949822 132.21048507350787 170.02883394136802 H 0.0 **** 0.06
33329 H 107.34459095712964 131.9174034679993 169.69283852080937 H 0.0 **** 0.06
33330 H 107.83305215209259 132.71006470747756 171.20954788187302 H 0.0 **** 0.06
33331 C 7.126677945099139 184.04285130840609 144.70902062273598 C 0.0 **** -0.24
33332 H 6.114058626377378 184.21239524290718 144.3442252926386 H 0.0 **** 0.06
33333 H 7.09780337599495 183.34616893734955 145.54763116701116 H 0.0 **** 0.06
33334 H 7.55848185676583 184.98787437024407 145.03691001524774 H 0.0 **** 0.06
33335 H 7.735380887989486 183.6230697838672 143.90851086676392 H 0.0 **** 0.06
33336 C 169.43360861644618 11.176046728313253 186.74585772995835 C 0.0 **** -0.24
33337 H 170.21212151435705 11.73243546352186 186.22269336528552 H 0.0 **** 0.06
33338 H 169.59465983837808 11.251957375456598 187.82195707212665 H 0.0 **** 0.06
33339 H 169.47131628313105 10.128934396212173 186.44554859410465 H 0.0 **** 0.06
33340 H 168.45801202289186 11.592199627528018 186.4944144252643 H 0.0 **** 0.06
33341 C 65.29477238336224 139.80720861353055 160.8686867564804 C 0.0 **** -0.24
33342 H 64.51221931463478 139.04894372865138 160.8911085323507 H 0.0 **** 0.06
33343 H 64.90499193482366 140.74438990231818 161.26371343520907 H 0.0 **** 0.06
33344 H 65.62704503715565 139.95545916510025 159.84047307618005 H 0.0 **** 0.06
33345 H 66.13729820597631 139.4769879662219 161.4775547859995 H 0.0 **** 0.06
33346 C 74.7643312408125 31.53408796813426 122.15545147653299 C 0.0 **** -0.24
33347 H 74.61677415783349 30.745595241228585 121.41748615967961 H 0.0 **** 0.06
33348 H 75.63968047233563 32.12571015661928 121.8835440725178 H 0.0 **** 0.06
33349 H 74.91682041746704 31.089296684665953 123.13800092198633 H 0.0 **** 0.06
33350 H 73.88483603955709 32.177617601221186 122.17979254278512 H 0.0 **** 0.06
33351 C 40.602075607934026 17.731081765093577 168.79050458870884 C 0.0 **** -0.24
33352 H 40.16324494153254 18.13003893536161 167.8759093189432 H 0.0 **** 0.06
33353 H 41.304260530894766 18.455798242925525 169.20184511622986 H 0.0 **** 0.06
33354 H 41.12715691117893 16.80257216955654 168.56655987248763 H 0.0 **** 0.06
33355 H 39.812536253327124 17.53599278787364 169.51682311360148 H 0.0 **** 0.06
33356 C 124.46007010738225 139.47754708042754 30.99642281792501 C 0.0 **** -0.24
33357 H 123.40539405514892 139.7096560691367 30.84901006006976 H 0.0 **** 0.06
33358 H 125.05978976316942 140.04965604573033 30.28831734926581 H 0.0 **** 0.06
33359 H 124.62297270971635 138.41217669637524 30.834659531049056 H 0.0 **** 0.06
33360 H 124.75024490860031 139.73937023825806 32.01356434416249 H 0.0 **** 0.06
33361 C 38.31169802484723 40.54091142426711 194.6825284251527 C 0.0 **** -0.24
33362 H 38.16164401943706 41.09102210603248 193.75329770755405 H 0.0 **** 0.06
33363 H 38.72807451173834 39.55830048436604 194.4579553396006 H 0.0 **** 0.06
33364 H 37.35607851706595 40.421980796646324 195.19269460800882 H 0.0 **** 0.06
33365 H 39.00057999959269 41.09028119413779 195.32402601552621 H 0.0 **** 0.06
33366 C 173.09539239280156 92.03103226175855 123.32281066990612 C 0.0 **** -0.24
33367 H 174.10593710855093 91.62888739585242 123.2492133077167 H 0.0 **** 0.06
33368 H 173.1298364548436 93.11699364468427 123.24454744892736 H 0.0 **** 0.06
33369 H 172.66060983378247 91.74793171014147 124.28187735454671 H 0.0 **** 0.06
33370 H 172.48510219182018 91.62717736950617 122.51453670935888 H 0.0 **** 0.06
33371 C 183.49104229715635 23.442682524699194 107.90488047743833 C 0.0 **** -0.24
33372 H 184.35534358409248 22.941379788792432 107.46936867241072 H 0.0 **** 0.06
33373 H 182.9875476519923 22.76514444793108 108.59470145854482 H 0.0 **** 0.06
33374 H 182.80234073706984 23.73365965779732 107.11162821354367 H 0.0 **** 0.06
33375 H 183.82127669169137 24.330792815537734 108.44450632699841 H 0.0 **** 0.06
33376 C 82.27645359567217 71.65019161086911 35.571435139595636 C 0.0 **** -0.24
33377 H 81.5979155069019 71.166160272546 36.273141906073775 H 0.0 **** 0.06
33378 H 81.72579191229883 71.9384063059062 34.674935990944334 H 0.0 **** 0.06
33379 H 83.07443939610977 70.95883081437245 35.30161004416124 H 0.0 **** 0.06
33380 H 82.70562867891894 72.53860586820724 36.035492844137195 H 0.0 **** 0.06
33381 C 145.68929688046757 73.57146253019592 167.88198737884233 C 0.0 **** -0.24
33382 H 145.38614030592902 72.53008378802727 167.77390829677358 H 0.0 **** 0.06
33383 H 144.9096672405397 74.22000550586624 167.48213700670806 H 0.0 **** 0.06
33384 H 146.6168607344273 73.73789469511547 167.33542970989427 H 0.0 **** 0.06
33385 H 145.84355590163403 73.79696865259247 168.93759992337385 H 0.0 **** 0.06
33386 C 29.273088293069904 45.639778816499984 156.8553167631188 C 0.0 **** -0.24
33387 H 29.035541111539942 45.48037417574429 155.80414210998939 H 0.0 **** 0.06
33388 H 29.405294240849514 46.70657668913344 157.04004521880333 H 0.0 **** 0.06
33389 H 30.193124651197536 45.11141325518918 157.10388385866622 H 0.0 **** 0.06
33390 H 28.458541535564578 45.26173511901436 157.47309684045817 H 0.0 **** 0.06
33391 C 47.983958616481615 172.3297553791867 79.8501748787298 C 0.0 **** -0.24
33392 H 47.645502541065596 172.72421223195389 80.80821191146464 H 0.0 **** 0.06
33393 H 48.891736441519555 171.74434333171538 79.9984073015703 H 0.0 **** 0.06
33394 H 48.18973320528171 173.15623153711832 79.16971571874308 H 0.0 **** 0.06
33395 H 47.206792833729054 171.69450346599584 79.42516777696835 H 0.0 **** 0.06
33396 C 41.08542350984544 161.48051624593975 38.05810530859725 C 0.0 **** -0.24
33397 H 41.11504716355694 160.76839968579657 38.881988247771176 H 0.0 **** 0.06
33398 H 41.83821588404973 161.2094471367222 37.316995404358835 H 0.0 **** 0.06
33399 H 41.2906277423709 162.48150440597038 38.43557130120281 H 0.0 **** 0.06
33400 H 40.09826851955182 161.46116445669225 37.59724719910908 H 0.0 **** 0.06
33401 C 146.61628689775821 154.81110236092923 25.939989251214797 C 0.0 **** -0.24
33402 H 147.41592565611572 154.79074558755167 25.19939547264289 H 0.0 **** 0.06
33403 H 147.0480854207307 154.78853045455259 26.94035529325231 H 0.0 **** 0.06
33404 H 145.97229786338883 153.94169067669606 25.80290111482134 H 0.0 **** 0.06
33405 H 146.0299067103383 155.72096639839367 25.816452347089182 H 0.0 **** 0.06
33406 C 32.9394491160308 25.403140650449302 48.400426597210554 C 0.0 **** -0.24
33407 H 33.528703251692946 25.543847190655583 47.49470152889978 H 0.0 **** 0.06
33408 H 32.99061416392033 26.306222983299904 49.00965820097885 H 0.0 **** 0.06
33409 H 33.33692196349571 24.560132504072214 48.9653356835386 H 0.0 **** 0.06
33410 H 31.901391112240447 25.204802914352655 48.13207715509759 H 0.0 **** 0.06
33411 C 153.8720185229455 68.04011100708544 48.281212245097166 C 0.0 **** -0.24
33412 H 153.26265732959274 67.26896904262148 48.75120656687082 H 0.0 **** 0.06
33413 H 154.82536038535756 68.11853010470847 48.80357650106886 H 0.0 **** 0.06
33414 H 153.3495092192294 68.99602426356182 48.33221796776668 H 0.0 **** 0.06
33415 H 154.04864929358098 67.77806801810102 47.23813376278157 H 0.0 **** 0.06
33416 C 93.6068140967052 100.8951942632095 67.58145132183546 C 0.0 **** -0.24
33417 H 93.24939785767037 101.92365014479876 67.63624933273587 H 0.0 **** 0.06
33418 H 93.72993212868568 100.49851301196853 68.58979037320353 H 0.0 **** 0.06
33419 H 94.56579918652471 100.87141530802273 67.06214228091278 H 0.0 **** 0.06
33420 H 92.88392257430996 100.28807842386368 67.03767484217497 H 0.0 **** 0.06
33421 C 54.5777828376264 111.86351393584266 60.41293295357367 C 0.0 **** -0.24
33422 H 54.83206727988484 112.39567574297814 59.496291848520926 H 0.0 **** 0.06
33423 H 54.771483077121744 110.79936920835178 60.28017796677328 H 0.0 **** 0.06
33424 H 53.52214905003676 112.01523154155427 60.639467211126004 H 0.0 **** 0.06
33425 H 55.18500865963877 112.24432151464612 61.23420518250326 H 0.0 **** 0.06
33426 C 126.21801557299366 124.98262842019636 53.69539948581178 C 0.0 **** -0.24
33427 H 126.75720324418873 124.83238537880462 54.63134039825013 H 0.0 **** 0.06
33428 H 126.33439495766996 124.10118873867685 53.06314901740973 H 0.0 **** 0.06
33429 H 126.62071045400876 125.85447615481834 53.18045285876042 H 0.0 **** 0.06
33430 H 125.16093638329511 125.14196744981487 53.907251636376714 H 0.0 **** 0.06
33431 C 48.863302722935074 16.507150777165407 183.29115817438287 C 0.0 **** -0.24
33432 H 49.78370905703797 17.08464215434759 183.2016563101539 H 0.0 **** 0.06
33433 H 48.07050245020338 16.99977265998237 182.72804176108633 H 0.0 **** 0.06
33434 H 48.5766918970203 16.44109681133733 184.3404049403155 H 0.0 **** 0.06
33435 H 49.02354897977625 15.50538219046581 182.8934289911549 H 0.0 **** 0.06
33436 C 58.79404931790552 148.15120753594988 78.84599290582742 C 0.0 **** -0.24
33437 H 59.07779184478579 148.23354909596418 77.79689151702998 H 0.0 **** 0.06
33438 H 57.77679091882962 147.76507285773442 78.91711295180602 H 0.0 **** 0.06
33439 H 58.84390015083392 149.13404292447763 79.31424942470466 H 0.0 **** 0.06
33440 H 59.477053974296155 147.4706808180449 79.3545513694857 H 0.0 **** 0.06
33441 C 51.57986736060997 190.56026006285697 105.58488215853964 C 0.0 **** -0.24
33442 H 50.63250807809732 190.12864961774363 105.26029855129022 H 0.0 **** 0.06
33443 H 52.40143451106786 190.05542677328418 105.07562537411658 H 0.0 **** 0.06
33444 H 51.68591107435296 190.43261549785518 106.66214780673616 H 0.0 **** 0.06
33445 H 51.59746356073268 191.62206045283892 105.34109133093858 H 0.0 **** 0.06
33446 C 68.97183831272133 7.99262614126885 124.04398024706686 C 0.0 **** -0.24
33447 H 68.89859558191205 7.413285911480607 124.96461323195501 H 0.0 **** 0.06
33448 H 69.89479783930506 7.73277363376657 123.5245208232067 H 0.0 **** 0.06
33449 H 68.97528929638855 9.055889195140793 124.28269019405167 H 0.0 **** 0.06
33450 H 68.11849126460618 7.766393316038837 123.40463667161555 H 0.0 **** 0.06
33451 C 111.55003916702486 47.557522660080565 168.765785057534 C 0.0 **** -0.24
33452 H 111.55528438405082 46.68507246673205 169.41945992969306 H 0.0 **** 0.06
33453 H 110.85773752633793 47.38852434036333 167.9404513623781 H 0.0 **** 0.06
33454 H 112.5527804242789 47.72299801059512 168.37229102553005 H 0.0 **** 0.06
33455 H 111.23235924842714 48.43340260361036 169.33294069034872 H 0.0 **** 0.06
33456 C 97.4938101504863 86.25374294478809 150.220996787484 C 0.0 **** -0.24
33457 H 97.60428334829922 85.5259189694691 149.41702936275016 H 0.0 **** 0.06
33458 H 98.03562679440554 85.90865642421409 151.10143798033522 H 0.0 **** 0.06
33459 H 96.4375362580274 86.36705612038043 150.4649563538066 H 0.0 **** 0.06
33460 H 97.89684382513633 87.21433838080975 149.8995143509663 H 0.0 **** 0.06
33461 C 189.26724764069326 38.56392046892657 78.72384214265699 C 0.0 **** -0.24
33462 H 189.5735643679858 37.977973691856874 79.59017182035558 H 0.0 **** 0.06
33463 H 188.64775129604976 37.94872605096006 78.07005102649256 H 0.0 **** 0.06
33464 H 190.15096213475275 38.89794407477763 78.17999601538033 H 0.0 **** 0.06
33465 H 188.69578154272682 39.431046250467546 79.05621404062575 H 0.0 **** 0.06
33466 C 70.37925999927026 165.85201731089177 19.294219777960734 C 0.0 **** -0.24
33467 H 70.2338483449038 166.47828643235204 18.41503943127678 H 0.0 **** 0.06
33468 H 69.46382849249267 165.2987291621402 19.50232804094442 H 0.0 **** 0.06
33469 H 70.62766538665119 166.4796548955986 20.15038945751644 H 0.0 **** 0.06
33470 H 71.19356725795524 165.1510851274385 19.11030825669009 H 0.0 **** 0.06
33471 C 58.54868458846097 85.4800628751533 196.80056110135737 C 0.0 **** -0.24
33472 H 59.440260171419354 85.409064388258 196.17638251450074 H 0.0 **** 0.06
33473 H 58.84306343475798 85.52724935050321 197.84949066817137 H 0.0 **** 0.06
33474 H 57.92149056731634 84.60380519929197 196.6375831264408 H 0.0 **** 0.06
33475 H 57.991762710498065 86.37869104888819 196.53805190685043 H 0.0 **** 0.06
33476 C 189.24705523640912 83.89377904354944 9.464883435316963 C 0.0 **** -0.24
33477 H 189.3734260368783 82.87179942770211 9.107505807966355 H 0.0 **** 0.06
33478 H 188.6959672969472 83.88280619640182 10.405751323195943 H 0.0 **** 0.06
33479 H 188.6924328198125 84.47069672251826 8.72538655797323 H 0.0 **** 0.06
33480 H 190.22528980114885 84.34712861846072 9.621644268137459 H 0.0 **** 0.06
33481 C 119.15480182240958 141.24842054761376 183.60867181731328 C 0.0 **** -0.24
33482 H 119.49181379154814 141.25973469532948 184.6449968608263 H 0.0 **** 0.06
33483 H 119.11977919779818 140.22040008296887 183.24886352158978 H 0.0 **** 0.06
33484 H 119.84718910557504 141.8256237824545 182.9959500568493 H 0.0 **** 0.06
33485 H 118.1589542615244 141.68909052370185 183.5460912524925 H 0.0 **** 0.06
33486 C 116.45610841604872 12.033486120376892 163.9116140692181 C 0.0 **** -0.24
33487 H 117.19296914004238 11.722449738072214 164.6529826356512 H 0.0 **** 0.06
33488 H 116.35968789295265 13.119060521569565 163.92878915882977 H 0.0 **** 0.06
33489 H 115.49285389734203 11.579084128777993 164.14620365129747 H 0.0 **** 0.06
33490 H 116.77885333902768 11.711839823932678 162.9219034870901 H 0.0 **** 0.06
33491 C 187.3899988515644 43.48391871165347 99.33399460230572 C 0.0 **** -0.24
33492 H 188.15842802338085 43.589272523475074 100.09950871295297 H 0.0 **** 0.06
33493 H 186.48228590181134 43.99401199785336 99.65718298866162 H 0.0 **** 0.06
33494 H 187.17651130987963 42.4259787042983 99.1779250157868 H 0.0 **** 0.06
33495 H 187.74273370773966 43.92465873477076 98.40232405703102 H 0.0 **** 0.06
33496 C 34.7931508565448 34.71413487861173 60.23788784785907 C 0.0 **** -0.24
33497 H 34.94241665270958 35.570334350113114 60.895204251687176 H 0.0 **** 0.06
33498 H 34.197748218036736 33.95994864038386 60.7532843131703 H 0.0 **** 0.06
33499 H 35.76050628456531 34.29083867219566 59.9666582607648 H 0.0 **** 0.06
33500 H 34.271932270867524 35.03541785175429 59.336404565814064 H 0.0 **** 0.06
33501 C 56.9403151320426 49.852189666818305 17.626468641380143 C 0.0 **** -0.24
33502 H 55.975341124940044 49.599196628984316 18.065861829631558 H 0.0 **** 0.06
33503 H 56.80277405796839 50.61428494204665 16.85925750260992 H 0.0 **** 0.06
33504 H 57.37930690108841 48.96077065440505 17.178185184601062 H 0.0 **** 0.06
33505 H 57.60467295514641 50.23253024089502 18.403201182067903 H 0.0 **** 0.06
33506 C 109.21868388586887 128.33744178012637 17.232629752799184 C 0.0 **** -0.24
33507 H 109.24224699906728 127.3005551854601 17.565300181516832 H 0.0 **** 0.06
33508 H 109.24452204043234 128.37081137697248 16.142707472587688 H 0.0 **** 0.06
33509 H 110.08339006641768 128.8676262959242 17.633012450772767 H 0.0 **** 0.06
33510 H 108.30502004999937 128.81304954766506 17.58870744341941 H 0.0 **** 0.06
33511 C 108.17902367640491 67.39180255240414 92.82354816467085 C 0.0 **** -0.24
33512 H 107.91898140577874 68.27975301288065 92.24678851531422 H 0.0 **** 0.06
33513 H 107.34902961526564 66.68479437653133 92.79454795337861 H 0.0 **** 0.06
33514 H 108.37875504114817 67.67522483723867 93.85725938516555 H 0.0 **** 0.06
33515 H 109.06715550643133 66.92774363892526 92.39516766834817 H 0.0 **** 0.06
33516 C 43.67067111991474 13.149720382591596 43.40133161862043 C 0.0 **** -0.24
33517 H 43.57048738477158 13.774596945692316 44.28849122698158 H 0.0 **** 0.06
33518 H 44.6956335292636 13.201275911330484 43.03460861642563 H 0.0 **** 0.06
33519 H 42.98973285212861 13.50501831813228 42.62793318711235 H 0.0 **** 0.06
33520 H 43.426830713494894 12.117990355211376 43.65429344396219 H 0.0 **** 0.06
33521 C 102.56265041924931 188.02834546474347 182.21309663539182 C 0.0 **** -0.24
33522 H 102.96765642767818 188.76401836626346 182.9074849868831 H 0.0 **** 0.06
33523 H 101.91804966569822 188.52786890749667 181.48961208903972 H 0.0 **** 0.06
33524 H 101.98526950914945 187.28708188787166 182.76452682221657 H 0.0 **** 0.06
33525 H 103.38170591345278 187.53407471282543 181.69001421550104 H 0.0 **** 0.06
33526 C 40.78018954020348 16.14608371356985 33.921931593249866 C 0.0 **** -0.24
33527 H 41.14594878221996 15.89511968938325 34.9177583477326 H 0.0 **** 0.06
33528 H 40.172575701140175 17.04985336495986 33.975890276593816 H 0.0 **** 0.06
33529 H 40.176255603394 15.324036384883925 33.53827202689958 H 0.0 **** 0.06
33530 H 41.62680055736013 16.31678115905069 33.25729045700777 H 0.0 **** 0.06
33531 C 5.18279605765008 40.45096833735124 65.25483620564825 C 0.0 **** -0.24
33532 H 5.597224221328247 40.27225687526325 64.26295104076303 H 0.0 **** 0.06
33533 H 5.866319381254982 41.07806402495976 65.8271521540263 H 0.0 **** 0.06
33534 H 5.047452128918337 39.49916254966655 65.76871406135535 H 0.0 **** 0.06
33535 H 4.2197775103888375 40.95373224083943 65.16115891022383 H 0.0 **** 0.06
33536 C 94.20965158315755 73.65005579985528 4.966644803279934 C 0.0 **** -0.24
33537 H 94.69622468337684 72.73703701129732 4.6237118810680045 H 0.0 **** 0.06
33538 H 93.76039190014762 73.47574365674491 5.945454664061685 H 0.0 **** 0.06
33539 H 93.43368552699081 73.93759150542043 4.257476577985102 H 0.0 **** 0.06
33540 H 94.94739366280317 74.447833063892 5.042194170385699 H 0.0 **** 0.06
33541 C 84.49318975057773 97.70322240777088 191.64263533494142 C 0.0 **** -0.24
33542 H 84.64080636716628 96.89595008074667 192.35957633215938 H 0.0 **** 0.06
33543 H 85.19929828908508 97.59243021012006 190.81945825108332 H 0.0 **** 0.06
33544 H 84.65747243524135 98.6614014097647 192.1360762050706 H 0.0 **** 0.06
33545 H 83.47482848460484 97.66476796940702 191.25508497160612 H 0.0 **** 0.06
33546 C 55.93007182633579 156.13168342297917 20.53492365057906 C 0.0 **** -0.24
33547 H 56.80847697483739 156.6573734916561 20.158761374276608 H 0.0 **** 0.06
33548 H 56.17724242188979 155.08256439845783 20.69762476879268 H 0.0 **** 0.06
33549 H 55.12372189120555 156.20674552374564 19.80586595092332 H 0.0 **** 0.06
33550 H 55.613335913467836 156.58150959710215 21.4750610994584 H 0.0 **** 0.06
33551 C 50.583476563038914 116.49506118641077 180.73938691341104 C 0.0 **** -0.24
33552 H 51.56464125683709 116.02587546680138 180.81009957412783 H 0.0 **** 0.06
33553 H 50.11163492719828 116.49820720509064 181.7220522986455 H 0.0 **** 0.06
33554 H 49.962988630098295 115.93433388619354 180.0407294221427 H 0.0 **** 0.06
33555 H 50.69497167873507 117.51902528670189 180.38568365043466 H 0.0 **** 0.06
33556 C 81.41998505391231 169.61364682657222 70.87260943299626 C 0.0 **** -0.24
33557 H 82.44494795369184 169.5722605429653 71.2416160982144 H 0.0 **** 0.06
33558 H 80.84060743515033 170.302236595105 71.48791861964934 H 0.0 **** 0.06
33559 H 80.97512953155805 168.61998889676084 70.92208828109389 H 0.0 **** 0.06
33560 H 81.41953769238387 169.96131634507825 69.83948098462294 H 0.0 **** 0.06
33561 C 51.90328138566363 72.66136585226127 174.5362494430668 C 0.0 **** -0.24
33562 H 52.1143959330424 71.59571175524891 174.62319579477855 H 0.0 **** 0.06
33563 H 52.71267010849235 73.14898897267874 173.99374575593535 H 0.0 **** 0.06
33564 H 51.81782436299993 73.09648904001426 175.531604442648 H 0.0 **** 0.06
33565 H 50.96680143388929 72.8025596489029 173.99653442877437 H 0.0 **** 0.06
33566 C 52.583647510974004 74.79374279756422 76.79358524041209 C 0.0 **** -0.24
33567 H 53.224119185769496 74.17201755059068 76.1674978287818 H 0.0 **** 0.06
33568 H 51.54505566801777 74.66506377626062 76.49096278972705 H 0.0 **** 0.06
33569 H 52.86983771093253 75.83933722870871 76.67946188879715 H 0.0 **** 0.06
33570 H 52.69860110635409 74.49766940164032 77.8366973705019 H 0.0 **** 0.06
33571 C 87.37553668668738 78.68704388031705 164.8943010484045 C 0.0 **** -0.24
33572 H 87.99650295259624 78.67032982745914 163.9985749621659 H 0.0 **** 0.06
33573 H 87.67247109570843 77.87354982496454 165.55654878897923 H 0.0 **** 0.06
33574 H 86.32915199169645 78.56454897159571 164.6126740355858 H 0.0 **** 0.06
33575 H 87.50466686098792 79.63937644832052 165.40755024451335 H 0.0 **** 0.06
33576 C 197.14767211098447 180.34908280661506 43.85702281027707 C 0.0 **** -0.24
33577 H 196.05990053126084 180.32923303903357 43.79115432951315 H 0.0 **** 0.06
33578 H 197.54211120564787 179.35405457092838 43.64859221071126 H 0.0 **** 0.06
33579 H 197.4445757184855 180.65628526182377 44.85884242472022 H 0.0 **** 0.06
33580 H 197.54244871848454 181.056725328622 43.12769422676436 H 0.0 **** 0.06
33581 C 127.31336424483771 26.294517940175666 14.013746054846585 C 0.0 **** -0.24
33582 H 127.93428119013038 26.731002427833516 13.23113304008507 H 0.0 **** 0.06
33583 H 127.39760402680753 25.207281854707333 13.980278407713044 H 0.0 **** 0.06
33584 H 126.27384985131712 26.58329099857798 13.855342615186423 H 0.0 **** 0.06
33585 H 127.64638593145193 26.655590604719464 14.986387690982554 H 0.0 **** 0.06
33586 C 125.54954823938661 51.99949093499927 111.08478731256739 C 0.0 **** -0.24
33587 H 124.84995655807768 51.42450308487025 111.6925694798542 H 0.0 **** 0.06
33588 H 125.13597232428424 52.99137121720514 110.89817492016351 H 0.0 **** 0.06
33589 H 125.71172509186505 51.48865534461146 110.13598315096328 H 0.0 **** 0.06
33590 H 126.49726471806534 52.094231839995246 111.61404745754461 H 0.0 **** 0.06
33591 C 182.11153524156322 156.55544630484812 25.72353174335325 C 0.0 **** -0.24
33592 H 181.7802057499778 157.36599915620067 25.07573587347929 H 0.0 **** 0.06
33593 H 183.1792439774518 156.65767136414624 25.91621740342714 H 0.0 **** 0.06
33594 H 181.91890445454118 155.59936503416483 25.236974796558002 H 0.0 **** 0.06
33595 H 181.5657004643632 156.59856250937983 26.666468691945028 H 0.0 **** 0.06
33596 C 114.9949102051396 69.19999496664241 37.412370747058986 C 0.0 **** -0.24
33597 H 114.00461566347454 69.09603415227292 36.9686325827312 H 0.0 **** 0.06
33598 H 114.89936781565925 69.59908016523315 38.423138960108304 H 0.0 **** 0.06
33599 H 115.59355353246221 69.881268868706 36.807544553744094 H 0.0 **** 0.06
33600 H 115.47969772349387 68.2253446715066 37.450561193836535 H 0.0 **** 0.06
33601 C 112.15345757573107 47.400845712427554 19.68974572245446 C 0.0 **** -0.24
33602 H 111.46622499182723 46.71678222197011 19.192778742020153 H 0.0 **** 0.06
33603 H 112.55892516962047 48.10246071017309 18.960634543538276 H 0.0 **** 0.06
33604 H 112.96834677952222 46.83297170452522 20.13993057624134 H 0.0 **** 0.06
33605 H 111.6208744250032 47.94963105265663 20.466225929694474 H 0.0 **** 0.06
33606 C 62.934374452854314 157.28833290590947 97.50587687702819 C 0.0 **** -0.24
33607 H 63.84037783863835 157.18142552824114 96.90824121143038 H 0.0 **** 0.06
33608 H 62.323585256984245 156.3903162504727 97.40201940614867 H 0.0 **** 0.06
33609 H 62.3707991774063 158.15329519708388 97.15928377473136 H 0.0 **** 0.06
33610 H 63.20461105982886 157.42516109202495 98.55314853007104 H 0.0 **** 0.06
33611 C 32.89772796816902 195.4347789007473 158.5536373726132 C 0.0 **** -0.24
33612 H 32.20328097632171 196.16795641512704 158.96341387517566 H 0.0 **** 0.06
33613 H 32.372505048139175 194.49543222222627 158.37875627139707 H 0.0 **** 0.06
33614 H 33.71159142686915 195.2711777005243 159.25958608693514 H 0.0 **** 0.06
33615 H 33.30257863960236 195.80524040367965 157.61089354201323 H 0.0 **** 0.06
33616 C 132.31576074990423 132.19088033907323 150.0622038744894 C 0.0 **** -0.24
33617 H 132.87416058160693 132.38343860267528 150.97919551092986 H 0.0 **** 0.06
33618 H 132.38920005847672 133.0567840229261 149.40377151361818 H 0.0 **** 0.06
33619 H 131.26975370421295 132.00641301842248 150.30654123362277 H 0.0 **** 0.06
33620 H 132.7318112426438 131.31701396925766 149.5614142727833 H 0.0 **** 0.06
33621 C 115.37033238270476 192.56381256822434 169.11706286758658 C 0.0 **** -0.24
33622 H 115.50734107318627 191.8889155355999 169.96171326126878 H 0.0 **** 0.06
33623 H 116.18565458421179 193.28696781109835 169.09439378590648 H 0.0 **** 0.06
33624 H 114.42054790679157 193.08894034066293 169.22210081850793 H 0.0 **** 0.06
33625 H 115.36678964568105 191.98943713193893 168.18987517253964 H 0.0 **** 0.06
33626 C 180.07955822653557 178.76136887638634 160.35728791796544 C 0.0 **** -0.24
33627 H 179.4487646419599 177.8798502453472 160.23802324235876 H 0.0 **** 0.06
33628 H 180.990279241972 178.63717924723755 159.77163286210518 H 0.0 **** 0.06
33629 H 180.3371293053967 178.882704554248 161.40966735762058 H 0.0 **** 0.06
33630 H 179.54017727626442 179.64277312047864 160.01111105362645 H 0.0 **** 0.06
33631 C 25.203362818878205 170.65879117456714 18.15963747363071 C 0.0 **** -0.24
33632 H 26.008370308401 169.94190119422285 18.320548551583556 H 0.0 **** 0.06
33633 H 25.471333553699466 171.61330335890105 18.612522509271685 H 0.0 **** 0.06
33634 H 24.28630960938301 170.28341474750135 18.615190609759736 H 0.0 **** 0.06
33635 H 25.047464419309847 170.79602517998242 17.08943459235479 H 0.0 **** 0.06
33636 C 5.543975355421431 137.22289692473896 25.99947787506241 C 0.0 **** -0.24
33637 H 5.3170828693731735 138.27966570806063 26.141207284785352 H 0.0 **** 0.06
33638 H 6.3188981351248685 137.11652465464067 25.23977311215721 H 0.0 **** 0.06
33639 H 4.643486014473581 136.69822877240847 25.678028051523043 H 0.0 **** 0.06
33640 H 5.895258078323955 136.79769780906412 26.94005900389287 H 0.0 **** 0.06
33641 C 168.13410571055698 133.03753232097617 8.51329890699202 C 0.0 **** -0.24
33642 H 167.4050739306263 133.71208493077438 8.064948474451974 H 0.0 **** 0.06
33643 H 168.63158486239072 132.46790143441825 7.728155075786198 H 0.0 **** 0.06
33644 H 167.6260507058433 132.35245664907578 9.192085412748291 H 0.0 **** 0.06
33645 H 168.87240126232575 133.61701234346575 9.06709873783344 H 0.0 **** 0.06
33646 C 196.59783633970818 141.69728870466412 5.7658478256552215 C 0.0 **** -0.24
33647 H 196.47464731080106 140.87563069986015 6.471101155671832 H 0.0 **** 0.06
33648 H 197.58310975348962 141.63430632093088 5.3029210259756 H 0.0 **** 0.06
33649 H 196.5035456198095 142.6472180540028 6.292947621811841 H 0.0 **** 0.06
33650 H 195.82894863987818 141.63216709626528 4.9944785146031805 H 0.0 **** 0.06
33651 C 130.2047883054266 164.8933734631555 15.662234600518474 C 0.0 **** -0.24
33652 H 129.37555115310965 164.20731139800898 15.493524074148098 H 0.0 **** 0.06
33653 H 131.12186733568453 164.32482893114695 15.81567137450503 H 0.0 **** 0.06
33654 H 130.00091928537435 165.49912980712477 16.5449884446284 H 0.0 **** 0.06
33655 H 130.32056734074692 165.543517429286 14.794239928311953 H 0.0 **** 0.06
33656 C 8.975787530266757 148.3658120253748 55.06915899724817 C 0.0 **** -0.24
33657 H 9.188204862634052 149.2679065536787 55.64290896096898 H 0.0 **** 0.06
33658 H 8.570671343663776 147.60125569139097 55.73304618507325 H 0.0 **** 0.06
33659 H 9.895744478021584 148.00086839602852 54.61307234822263 H 0.0 **** 0.06
33660 H 8.248711646086349 148.59381980398334 54.29054178239119 H 0.0 **** 0.06
33661 C 163.39332864916614 177.21526079402437 0.35218262787171284 C 0.0 **** -0.24
33662 H 163.72578822979085 178.23557554089817 0.5432169863204876 H 0.0 **** 0.06
33663 H 162.57646667242074 177.22976492380135 -0.37040844329629863 H 0.0 **** 0.06
33664 H 163.04798840370535 176.76526093921308 1.282573358910156 H 0.0 **** 0.06
33665 H 164.2234379519289 176.63251347817504 -0.04790587184214701 H 0.0 **** 0.06
33666 C 146.34363789917407 25.2036945068607 116.65968546826454 C 0.0 **** -0.24
33667 H 146.02160036858146 24.274231080514852 116.18925878130031 H 0.0 **** 0.06
33668 H 146.59944022354242 25.01331910698866 117.70242516701992 H 0.0 **** 0.06
33669 H 145.53580599430583 25.934126707275738 116.61095041949253 H 0.0 **** 0.06
33670 H 147.21680236045117 25.591946756258125 116.13518408590613 H 0.0 **** 0.06
33671 C 39.66184643355329 148.12580672617779 39.860631463478 C 0.0 **** -0.24
33672 H 39.72968768212523 147.03901106168558 39.827188918634135 H 0.0 **** 0.06
33673 H 39.48348189636957 148.446331834741 40.88748999713931 H 0.0 **** 0.06
33674 H 38.838201528252995 148.45747540658078 39.22788534296477 H 0.0 **** 0.06
33675 H 40.59407187257237 148.55930184370635 39.49993162445048 H 0.0 **** 0.06
33676 C 165.75412855706537 147.06999821774025 127.44447797163926 C 0.0 **** -0.24
33677 H 165.214032736474 146.12940142995785 127.54629074784245 H 0.0 **** 0.06
33678 H 165.42611059254025 147.76229778470997 128.22132625530134 H 0.0 **** 0.06
33679 H 165.551899778112 147.50077373036095 126.46380133638371 H 0.0 **** 0.06
33680 H 166.82412875387053 146.88789861107546 127.5478124198255 H 0.0 **** 0.06
33681 C 42.88159169049001 76.1377358442641 38.46993362215103 C 0.0 **** -0.24
33682 H 42.95976874446916 75.26876457811812 39.12334082329542 H 0.0 **** 0.06
33683 H 41.84679560256501 76.48166568275585 38.44603720702884 H 0.0 **** 0.06
33684 H 43.1982382054851 75.8645156578923 37.4636506678867 H 0.0 **** 0.06
33685 H 43.52055326113552 76.93527736372778 38.84856577841158 H 0.0 **** 0.06
33686 C 105.9892834768562 108.52386500899522 185.62956580338272 C 0.0 **** -0.24
33687 H 105.9749120862268 107.58882512493156 185.06871503769406 H 0.0 **** 0.06
33688 H 105.52163254011472 108.37085529958446 186.60246370354685 H 0.0 **** 0.06
33689 H 105.44016114667062 109.28604690720266 185.07702793557772 H 0.0 **** 0.06
33690 H 107.02141612993933 108.84755105618868 185.76824975197877 H 0.0 **** 0.06
33691 C 130.08330661669356 40.557855753438844 52.28960161952567 C 0.0 **** -0.24
33692 H 129.10333313137915 40.821392623530926 51.89127640527343 H 0.0 **** 0.06
33693 H 130.09210377295742 40.71790290828915 53.36769029755378 H 0.0 **** 0.06
33694 H 130.84494453486846 41.183804473659194 51.82253138296642 H 0.0 **** 0.06
33695 H 130.2930132750978 39.510356012070815 52.07555239893166 H 0.0 **** 0.06
33696 C 164.4911652044407 153.43788869449213 112.62519494791331 C 0.0 **** -0.24
33697 H 165.10070378776416 152.92928841551236 113.37287079906173 H 0.0 **** 0.06
33698 H 164.79716835125055 153.11816154648045 111.6288078147378 H 0.0 **** 0.06
33699 H 164.62751704479655 154.51503668682903 112.71957213205053 H 0.0 **** 0.06
33700 H 163.44160793423492 153.18879791080633 112.78164302290895 H 0.0 **** 0.06
33701 C 179.2939443781462 96.84800639905029 148.03415031535704 C 0.0 **** -0.24
33702 H 179.63907293131473 96.62382962995457 149.04272887344783 H 0.0 **** 0.06
33703 H 180.0022183996304 97.52020087292723 147.54909959987847 H 0.0 **** 0.06
33704 H 178.31469807816762 97.32408998244952 148.08269703852972 H 0.0 **** 0.06
33705 H 179.2205073136654 95.92335926724326 147.46164585068885 H 0.0 **** 0.06
33706 C 130.07367509422062 191.36361045756612 180.17360342768038 C 0.0 **** -0.24
33707 H 130.17628589626017 191.59384600228884 181.2342236741219 H 0.0 **** 0.06
33708 H 130.36056943452718 190.3268462278806 179.99793826130187 H 0.0 **** 0.06
33709 H 130.7204246765864 192.0226709316795 179.59504838646646 H 0.0 **** 0.06
33710 H 129.0370325944057 191.51187294080074 179.8694878781721 H 0.0 **** 0.06
33711 C 33.10632821492959 186.91885781262215 123.21954527044042 C 0.0 **** -0.24
33712 H 32.71480356152449 186.55703076171204 122.2683090568429 H 0.0 **** 0.06
33713 H 33.26384451831041 186.0760431142136 123.89216601727622 H 0.0 **** 0.06
33714 H 32.39344193211707 187.6127421218353 123.66501400786854 H 0.0 **** 0.06
33715 H 34.05398652284768 187.43148495363235 123.05006117163796 H 0.0 **** 0.06
33716 C 106.70346811280376 159.06912644487187 111.65513905519737 C 0.0 **** -0.24
33717 H 106.32363181714973 158.22361915717494 112.22818397935947 H 0.0 **** 0.06
33718 H 105.9868123732636 159.33250672060544 110.87827418362326 H 0.0 **** 0.06
33719 H 107.65452674480363 158.79844593420427 111.19647117627494 H 0.0 **** 0.06
33720 H 106.85071213775066 159.92104349946223 112.31901571026071 H 0.0 **** 0.06
33721 C 50.02463712004294 4.841517645561581 59.48320257020575 C 0.0 **** -0.24
33722 H 49.81623603139235 5.708521612060714 58.85743123760281 H 0.0 **** 0.06
33723 H 50.1656190595358 3.964025752330201 58.851763924911936 H 0.0 **** 0.06
33724 H 49.18640537450443 4.671463671295349 60.15980355726681 H 0.0 **** 0.06
33725 H 50.92900754004535 5.022009688170037 60.06321327855542 H 0.0 **** 0.06
33726 C 192.49248497375754 158.5210246764094 1.5775158698221503 C 0.0 **** -0.24
33727 H 193.4655064101008 158.06525405874686 1.762867230887565 H 0.0 **** 0.06
33728 H 191.9914549354645 157.99088111475197 0.7683475562192257 H 0.0 **** 0.06
33729 H 192.6281249739684 159.56628246976436 1.2988052138198043 H 0.0 **** 0.06
33730 H 191.88653415763403 158.46229682580906 2.4813838466525056 H 0.0 **** 0.06
33731 C 32.24331174292007 98.91207326113931 132.4087379130363 C 0.0 **** -0.24
33732 H 32.54668084781122 98.77843158643103 131.36975100307095 H 0.0 **** 0.06
33733 H 31.305846039164294 99.4669484928549 132.44359778134105 H 0.0 **** 0.06
33734 H 33.013898322598294 99.46620928246617 132.9444993070188 H 0.0 **** 0.06
33735 H 32.105868634660595 97.93586465243936 132.87420739216165 H 0.0 **** 0.06
33736 C 33.229351271853176 38.14152237163228 13.775580629819359 C 0.0 **** -0.24
33737 H 32.77058471467329 37.89650811130798 12.817908488385228 H 0.0 **** 0.06
33738 H 34.063548451058224 38.82542231705236 13.61419089449425 H 0.0 **** 0.06
33739 H 33.59398176124928 37.228338434526904 14.248168643728363 H 0.0 **** 0.06
33740 H 32.491338948805605 38.61492584978225 14.422098697004856 H 0.0 **** 0.06
33741 C 65.72169547395717 194.9956980331409 90.16940960104787 C 0.0 **** -0.24
33742 H 65.29807384397002 195.90205994735865 89.7392602881011 H 0.0 **** 0.06
33743 H 64.98782313598387 194.52733732261612 90.82512014242238 H 0.0 **** 0.06
33744 H 66.61345606917634 195.2485220341733 90.74256292968522 H 0.0 **** 0.06
33745 H 65.98783847809837 194.30437527490645 89.36943620092075 H 0.0 **** 0.06
33746 C 90.99836451527375 88.72595867450855 165.6619179375886 C 0.0 **** -0.24
33747 H 91.26366320517081 88.50893436175997 164.62789825479774 H 0.0 **** 0.06
33748 H 91.67077810400627 89.48747958097991 166.05722612343266 H 0.0 **** 0.06
33749 H 91.08659680812849 87.81691635582692 166.2582641824553 H 0.0 **** 0.06
33750 H 89.97130118416732 89.08975297642897 165.70471188951518 H 0.0 **** 0.06
33751 C 92.98110020645225 55.02510112375826 186.01681396723814 C 0.0 **** -0.24
33752 H 91.96329985584322 55.34450429102242 186.24203998148113 H 0.0 **** 0.06
33753 H 93.67135292029946 55.842946040521184 186.22298758225736 H 0.0 **** 0.06
33754 H 93.04952208146665 54.74740060043629 184.96490924102284 H 0.0 **** 0.06
33755 H 93.23884901073609 54.166707420672395 186.63644003790927 H 0.0 **** 0.06
33756 C 15.996739740367815 139.64131053701476 45.43357182966665 C 0.0 **** -0.24
33757 H 15.988179452696386 138.55661226148615 45.33093151151333 H 0.0 **** 0.06
33758 H 16.899308404779035 139.9492514274016 45.96243184805461 H 0.0 **** 0.06
33759 H 15.118859943723848 139.9600465520561 45.996021924158185 H 0.0 **** 0.06
33760 H 15.980445984642742 140.10025116233805 44.44454467173057 H 0.0 **** 0.06
33761 C 143.28558037063374 30.037566580400835 182.89100229938717 C 0.0 **** -0.24
33762 H 143.0462164362882 29.03274634698741 182.54212997305444 H 0.0 **** 0.06
33763 H 142.77620407928674 30.770643807999434 182.26464435216067 H 0.0 **** 0.06
33764 H 144.3627420654416 30.19513603145002 182.83253655916047 H 0.0 **** 0.06
33765 H 142.9569452341871 30.150810720560344 183.9243973873049 H 0.0 **** 0.06
33766 C 87.75981009626415 69.4382254977598 183.65393207637592 C 0.0 **** -0.24
33767 H 87.92881102103803 70.01312463561621 182.74361545927675 H 0.0 **** 0.06
33768 H 88.0841789556602 68.40880444114983 183.49843662563188 H 0.0 **** 0.06
33769 H 86.69807087432173 69.45159697501079 183.9006823873734 H 0.0 **** 0.06
33770 H 88.32905000441559 69.87947250059372 184.47251115439929 H 0.0 **** 0.06
33771 C 109.62317327201083 6.025423757439796 192.66757833733539 C 0.0 **** -0.24
33772 H 110.67582041203508 5.761053084336993 192.55762893911222 H 0.0 **** 0.06
33773 H 109.05986233551909 5.632900677379098 191.82049326425377 H 0.0 **** 0.06
33774 H 109.52317170299102 7.1103303080520845 192.69984510249165 H 0.0 **** 0.06
33775 H 109.23667141706483 5.596602181141009 193.59177909441303 H 0.0 **** 0.06
33776 C 145.7043760340343 21.645083559905174 151.9963928097688 C 0.0 **** -0.24
33777 H 145.1291406285386 22.569345758346117 152.03917452336532 H 0.0 **** 0.06
33778 H 146.7567651594349 21.863416127168932 152.1807097219409 H 0.0 **** 0.06
33779 H 145.59313685384123 21.19346550590697 151.01158490013924 H 0.0 **** 0.06
33780 H 145.33788224962953 20.954570946839453 152.7564364495874 H 0.0 **** 0.06
33781 C 55.63218459843512 43.43379065468599 182.74855340561666 C 0.0 **** -0.24
33782 H 56.343016141071786 44.23698367563267 182.55346578643577 H 0.0 **** 0.06
33783 H 55.30007634103214 43.486082469940186 183.78556418697966 H 0.0 **** 0.06
33784 H 56.11324592300738 42.472016036259134 182.56887235222808 H 0.0 **** 0.06
33785 H 54.773839586783424 43.540017218602486 182.08535024248027 H 0.0 **** 0.06
33786 C 41.53384941809567 0.095852449077654 26.08485091686896 C 0.0 **** -0.24
33787 H 41.64179349580449 1.1566750925941847 25.859431150382477 H 0.0 **** 0.06
33788 H 42.15531066455269 -0.1575407342065489 26.94482157716135 H 0.0 **** 0.06
33789 H 41.8483174191757 -0.49175602016129005 25.222908445326055 H 0.0 **** 0.06
33790 H 40.4907858025535 -0.1223368125440345 26.31353938995113 H 0.0 **** 0.06
33791 C 72.25174122412231 138.01157025806415 0.7662352578537579 C 0.0 **** -0.24
33792 H 73.2704763630307 138.09808036711843 1.1425056045468693 H 0.0 **** 0.06
33793 H 71.58010394353573 137.76341597607546 1.5882659778890371 H 0.0 **** 0.06
33794 H 72.20955894521865 137.22593189357954 0.011699835974830819 H 0.0 **** 0.06
33795 H 71.94730065046018 138.9588552572711 0.3215896214771803 H 0.0 **** 0.06
33796 C 91.93814281133035 57.49916241082519 10.073488149640411 C 0.0 **** -0.24
33797 H 91.78843352421995 57.545005624789894 8.995552541213385 H 0.0 **** 0.06
33798 H 92.1877622557883 58.49237535954444 10.448749240369125 H 0.0 **** 0.06
33799 H 92.75205648891551 56.81088480174566 10.298446172832485 H 0.0 **** 0.06
33800 H 91.02322760086724 57.14974118130584 10.552927055386704 H 0.0 **** 0.06
33801 C 132.0500205784909 161.9788805389369 31.6316173273147 C 0.0 **** -0.24
33802 H 133.09182197829463 161.75204774847435 31.4056783854371 H 0.0 **** 0.06
33803 H 131.5041406908487 162.1446748113683 30.702700702759287 H 0.0 **** 0.06
33804 H 132.00013758101127 162.87618583860808 32.24798779733101 H 0.0 **** 0.06
33805 H 131.60560101578497 161.14155209062562 32.1706043648083 H 0.0 **** 0.06
33806 C 58.270247515283586 184.90912620002484 19.87920032659227 C 0.0 **** -0.24
33807 H 57.89891017408678 184.24076776541472 19.102346888605723 H 0.0 **** 0.06
33808 H 58.34398680487084 185.92140180380613 19.482958883985418 H 0.0 **** 0.06
33809 H 59.25491870582323 184.5736360343563 20.20550645356525 H 0.0 **** 0.06
33810 H 57.583882119425084 184.8985919924921 20.72623177138189 H 0.0 **** 0.06
33811 C 66.52629242812219 129.31379996754717 149.0541263606834 C 0.0 **** -0.24
33812 H 66.65134284000715 129.5167523700818 147.99012240530632 H 0.0 **** 0.06
33813 H 67.12399964014071 130.01949206505805 149.63032720795684 H 0.0 **** 0.06
33814 H 66.8547350707027 128.29725129817638 149.27032051682747 H 0.0 **** 0.06
33815 H 65.47597845540008 129.4206630447407 149.32370289038332 H 0.0 **** 0.06
33816 C 79.90231273331509 135.36023624873872 160.7012681726661 C 0.0 **** -0.24
33817 H 80.28554289837487 136.3762410350939 160.78801242755924 H 0.0 **** 0.06
33818 H 79.90682931706743 134.884619072607 161.6826572961496 H 0.0 **** 0.06
33819 H 80.53288511188518 134.7915201950407 160.01829877722307 H 0.0 **** 0.06
33820 H 78.8826672782807 135.38904589496508 160.31620084429608 H 0.0 **** 0.06
33821 C 28.61968861033489 41.882661510573854 165.6636768690483 C 0.0 **** -0.24
33822 H 28.756153583002572 40.9106034168492 165.19010316910175 H 0.0 **** 0.06
33823 H 29.588832116635018 42.274056367761574 165.9756202094983 H 0.0 **** 0.06
33824 H 27.973516471348546 41.77481626528785 166.53525513155114 H 0.0 **** 0.06
33825 H 28.16102491551942 42.57127149022361 164.9543556551638 H 0.0 **** 0.06
33826 C 113.69794137356473 68.3906719365315 0.0731019240894284 C 0.0 **** -0.24
33827 H 112.88318451138892 67.97248989983018 0.6635159352505582 H 0.0 **** 0.06
33828 H 114.33126887505989 69.00644252970449 0.7124559381311997 H 0.0 **** 0.06
33829 H 113.28744115416231 69.003118279457 -0.7295659551531628 H 0.0 **** 0.06
33830 H 114.28922583681694 67.58129310845203 -0.3543899058216766 H 0.0 **** 0.06
33831 C 184.58469575754071 167.48493855580608 4.31448054715969 C 0.0 **** -0.24
33832 H 185.25988253321958 166.64528873978486 4.479579571082212 H 0.0 **** 0.06
33833 H 183.55374337565934 167.14614186246396 4.410733565040857 H 0.0 **** 0.06
33834 H 184.7443965544407 167.88865805970755 3.3146901194306793 H 0.0 **** 0.06
33835 H 184.78305012749416 168.2606812191954 5.054232905662303 H 0.0 **** 0.06
33836 C 98.44642472881998 45.79812104145532 124.88755666887832 C 0.0 **** -0.24
33837 H 98.32456768939605 45.30059875018421 125.84998751097692 H 0.0 **** 0.06
33838 H 99.35448574870972 45.437461041614995 124.40486295533395 H 0.0 **** 0.06
33839 H 98.52002568422878 46.87483403488099 125.04208408518824 H 0.0 **** 0.06
33840 H 97.5856830207089 45.579687790109205 124.254347114213 H 0.0 **** 0.06
33841 C 133.96836560471888 29.010101804717408 135.20865161214005 C 0.0 **** -0.24
33842 H 133.5020699951832 29.834115743051854 135.74773981779484 H 0.0 **** 0.06
33843 H 134.96416675248292 29.307808112022997 134.88033056533973 H 0.0 **** 0.06
33844 H 133.3601859912102 28.754089589699106 134.3406389380272 H 0.0 **** 0.06
33845 H 134.04584136329515 28.143643420752312 135.86586472107115 H 0.0 **** 0.06
33846 C 171.3394874245803 106.60602186859427 151.1723561206258 C 0.0 **** -0.24
33847 H 171.18638177464464 105.53656705469263 151.31640034805582 H 0.0 **** 0.06
33848 H 172.35590302585268 106.78289754496754 150.820519504426 H 0.0 **** 0.06
33849 H 171.18518247237648 107.12538935628041 152.11776400112277 H 0.0 **** 0.06
33850 H 170.62934365729177 106.97748853170515 150.43345285636622 H 0.0 **** 0.06
33851 C 70.09312864368354 44.54643252808802 37.77453446959754 C 0.0 **** -0.24
33852 H 70.4919959565247 45.11217012812543 36.93333503533566 H 0.0 **** 0.06
33853 H 70.59492062587174 44.8571864676199 38.69125661499214 H 0.0 **** 0.06
33854 H 70.26323880692343 43.482193353751484 37.61026881993479 H 0.0 **** 0.06
33855 H 69.02352427916972 44.733006945049596 37.86379333580828 H 0.0 **** 0.06
33856 C 177.30486891371413 98.21809987316757 161.74316113792813 C 0.0 **** -0.24
33857 H 177.44211905387976 98.21242936706227 162.8248953689344 H 0.0 **** 0.06
33858 H 177.94128463134592 98.98439678723236 161.3009985564829 H 0.0 **** 0.06
33859 H 176.26171541027145 98.43381699049206 161.51067115967697 H 0.0 **** 0.06
33860 H 177.574643890424 97.2431516601882 161.33807212166425 H 0.0 **** 0.06
33861 C 189.21303980155568 43.248735871643646 120.602657986044 C 0.0 **** -0.24
33862 H 190.1010706310249 43.837083380196816 120.83104386934303 H 0.0 **** 0.06
33863 H 188.80423076770057 43.56475266845982 119.6429610347607 H 0.0 **** 0.06
33864 H 188.46629644136092 43.39950173617268 121.38295069678571 H 0.0 **** 0.06
33865 H 189.47861775759804 42.1926228629103 120.55573949820675 H 0.0 **** 0.06
33866 C 166.67296982416843 61.73477628800458 67.61905743199617 C 0.0 **** -0.24
33867 H 167.1705442658389 61.52586294806406 68.56611528377815 H 0.0 **** 0.06
33868 H 165.73599520759532 62.25758390010628 67.80787328140303 H 0.0 **** 0.06
33869 H 166.46925285894716 60.7973245132024 67.10238322873334 H 0.0 **** 0.06
33870 H 167.31851668825718 62.35816512215831 66.99959693196803 H 0.0 **** 0.06
33871 C 125.18170236985566 42.303948326693956 186.1677976755792 C 0.0 **** -0.24
33872 H 124.80386916227974 43.165899701725095 186.7180972179185 H 0.0 **** 0.06
33873 H 124.92886439650272 41.39101961197326 186.70663883496482 H 0.0 **** 0.06
33874 H 126.26503356868409 42.381137411425925 186.07213653174952 H 0.0 **** 0.06
33875 H 124.72923976898926 42.279138039847965 185.1769633276924 H 0.0 **** 0.06
33876 C 147.43401415692398 12.48248571079887 70.55809275920586 C 0.0 **** -0.24
33877 H 147.51790752666358 13.54544279897533 70.78296338901669 H 0.0 **** 0.06
33878 H 148.33754501875228 11.969225535795658 70.88710743332626 H 0.0 **** 0.06
33879 H 147.3104832732334 12.34804333959437 69.48244918422978 H 0.0 **** 0.06
33880 H 146.57007584747635 12.068578761640708 71.07717107379125 H 0.0 **** 0.06
33881 C 50.02052744701837 52.038842050676976 61.14030643093059 C 0.0 **** -0.24
33882 H 49.73059750593157 51.95844226068557 60.09184268713244 H 0.0 **** 0.06
33883 H 50.05034324941391 51.04363720656508 61.585913945582945 H 0.0 **** 0.06
33884 H 49.294317805942626 52.65329313492944 61.671423255289625 H 0.0 **** 0.06
33885 H 51.00678594168676 52.49840380513784 61.210476748920655 H 0.0 **** 0.06
33886 C 176.68214867577987 195.90550822116356 74.29161631209145 C 0.0 **** -0.24
33887 H 175.64033574652035 196.22299197168343 74.32917373006286 H 0.0 **** 0.06
33888 H 176.73449935880433 194.82023824265448 74.38849872404246 H 0.0 **** 0.06
33889 H 177.2331553967383 196.36962689866698 75.1087711933104 H 0.0 **** 0.06
33890 H 177.1196459722871 196.20716091479346 73.33987241127528 H 0.0 **** 0.06
33891 C 83.8497919619804 56.72932772153625 150.13825899903134 C 0.0 **** -0.24
33892 H 83.3152686282807 56.14231363367935 150.8844492744122 H 0.0 **** 0.06
33893 H 84.48768537848034 57.45862271029674 150.63844347451192 H 0.0 **** 0.06
33894 H 83.13334088448846 57.24792620968287 149.50252469345048 H 0.0 **** 0.06
33895 H 84.46540572287901 56.06693847359783 149.52817137924706 H 0.0 **** 0.06
33896 C 45.51521854267561 60.53784854691352 132.1792883873341 C 0.0 **** -0.24
33897 H 45.647720747531025 61.57749394441116 131.87875002148056 H 0.0 **** 0.06
33898 H 45.019855630306 59.989072348425125 131.37909845728583 H 0.0 **** 0.06
33899 H 44.90574152515585 60.49590884429219 133.08223828530777 H 0.0 **** 0.06
33900 H 46.48965880780587 60.090174117686075 132.3770015068879 H 0.0 **** 0.06
33901 C 74.17909545037398 100.51218724949058 142.19083777674106 C 0.0 **** -0.24
33902 H 73.96766620604507 101.37704247456733 141.56212894637488 H 0.0 **** 0.06
33903 H 74.81521672285935 99.81467478198306 141.64635935062617 H 0.0 **** 0.06
33904 H 73.24352095370897 100.01986565409265 142.45648132240348 H 0.0 **** 0.06
33905 H 74.68845760942015 100.83841074660401 143.09731397152353 H 0.0 **** 0.06
33906 C 54.145642067189044 94.67335841196495 38.827349704704375 C 0.0 **** -0.24
33907 H 53.53748500715977 95.55385588432853 39.03349495338479 H 0.0 **** 0.06
33908 H 53.54509945814314 93.93314396029064 38.29842737821241 H 0.0 **** 0.06
33909 H 54.49986477919538 94.2485950638935 39.76750984395787 H 0.0 **** 0.06
33910 H 54.99884437290126 94.95657584354888 38.21257059685067 H 0.0 **** 0.06
33911 C 77.09754412105774 111.90172723141171 193.65620975209544 C 0.0 **** -0.24
33912 H 76.27536192179878 112.53458837310225 193.32143983266428 H 0.0 **** 0.06
33913 H 76.86295980682571 111.49026089484772 194.63838150644335 H 0.0 **** 0.06
33914 H 78.00982800158097 112.49483637550097 193.71767796127892 H 0.0 **** 0.06
33915 H 77.24101047845484 111.08710718020234 192.94636310801297 H 0.0 **** 0.06
33916 C 166.06552198394036 140.45571750524596 53.096677453834445 C 0.0 **** -0.24
33917 H 165.46808382831063 140.39257602920677 54.00597194882073 H 0.0 **** 0.06
33918 H 166.76480682717175 139.62040058099825 53.061279369686815 H 0.0 **** 0.06
33919 H 166.61959132278952 141.3943531985526 53.08940525265507 H 0.0 **** 0.06
33920 H 165.40783658958395 140.41606986412 52.227689137443974 H 0.0 **** 0.06
33921 C 185.58178745849634 151.0637850065134 185.4110460915951 C 0.0 **** -0.24
33922 H 186.58184876985408 151.17015475298575 184.99195837927357 H 0.0 **** 0.06
33923 H 185.5496641218462 150.18481946999134 186.0552117295453 H 0.0 **** 0.06
33924 H 184.8595675796662 150.94818382858932 184.6032723096382 H 0.0 **** 0.06
33925 H 185.33528119113913 151.95144184109944 185.99344688308526 H 0.0 **** 0.06
33926 C 164.52779551995144 198.0174460008941 107.43321093833023 C 0.0 **** -0.24
33927 H 164.61427564973874 198.9525172682328 107.98807094695141 H 0.0 **** 0.06
33928 H 163.4747528214551 197.77361383851664 107.29472764795429 H 0.0 **** 0.06
33929 H 165.0164737951986 197.21867553051388 107.99006095026039 H 0.0 **** 0.06
33930 H 165.00748715619403 198.12809698642582 106.45994221478867 H 0.0 **** 0.06
33931 C 101.95724149156067 172.72320146848017 151.92030954269285 C 0.0 **** -0.24
33932 H 102.29562781942724 173.27568492927512 152.79748650565529 H 0.0 **** 0.06
33933 H 100.88596324185107 172.87475208304852 151.7870766235735 H 0.0 **** 0.06
33934 H 102.15957036738163 171.66160236717712 152.06039538994003 H 0.0 **** 0.06
33935 H 102.48894052421784 173.08116289863614 151.03902784966908 H 0.0 **** 0.06
33936 C 96.61437078777303 9.693951456768616 167.5458637809646 C 0.0 **** -0.24
33937 H 96.02570707887187 8.95136902917821 168.08403851766772 H 0.0 **** 0.06
33938 H 96.61134382367464 10.632005216576175 168.1017609678755 H 0.0 **** 0.06
33939 H 96.18023975626508 9.854747440955009 166.5588953982856 H 0.0 **** 0.06
33940 H 97.63879282266572 9.33748767341649 167.43880891180504 H 0.0 **** 0.06
33941 C 135.45514549620174 156.94686971879818 8.569729640094067 C 0.0 **** -0.24
33942 H 136.34034367201818 157.57877853071025 8.50365311713108 H 0.0 **** 0.06
33943 H 134.5637252453336 157.55191939164473 8.399778045767931 H 0.0 **** 0.06
33944 H 135.40442849722072 156.49469822720465 9.55989699802646 H 0.0 **** 0.06
33945 H 135.51072266424194 156.16307055887413 7.814117475271502 H 0.0 **** 0.06
33946 C 70.94639167132921 121.87288802953765 126.71018449207443 C 0.0 **** -0.24
33947 H 71.26717624956115 122.36729051254417 125.7921658841091 H 0.0 **** 0.06
33948 H 71.73690342822889 121.20790343655699 127.05872480001628 H 0.0 **** 0.06
33949 H 70.0444598420679 121.29363176453091 126.51367539039254 H 0.0 **** 0.06
33950 H 70.73860651836969 122.62304437056537 127.47279478782801 H 0.0 **** 0.06
33951 C 160.1749740208808 152.58794964090185 114.01869065032429 C 0.0 **** -0.24
33952 H 160.9599172090064 152.17551656087196 113.38504262455513 H 0.0 **** 0.06
33953 H 159.37143131002006 152.9777167760676 113.39397682031068 H 0.0 **** 0.06
33954 H 160.58635384688355 153.39476508396285 114.62686102460964 H 0.0 **** 0.06
33955 H 159.7841655996637 151.80581213198 114.6691346259214 H 0.0 **** 0.06
33956 C 36.41343387905749 180.7425516042545 100.62774826549008 C 0.0 **** -0.24
33957 H 36.96449805399044 181.67921921111022 100.71175868825674 H 0.0 **** 0.06
33958 H 36.88762468295636 180.10937950068524 99.87800441170839 H 0.0 **** 0.06
33959 H 35.385888351255176 180.9514649308018 100.33039983607028 H 0.0 **** 0.06
33960 H 36.41671245145437 180.23117983403978 101.58985627690925 H 0.0 **** 0.06
33961 C 114.58500701021808 171.76638132783052 10.813452242136364 C 0.0 **** -0.24
33962 H 115.13340613682658 170.8246754278859 10.829391874165431 H 0.0 **** 0.06
33963 H 113.59674581415766 171.61867719510735 11.250925690317338 H 0.0 **** 0.06
33964 H 114.47928635978886 172.1079726722741 9.783888657586644 H 0.0 **** 0.06
33965 H 115.12942145859063 172.51446899417385 11.39035297023429 H 0.0 **** 0.06
33966 C 86.86149258919437 169.2634150563181 38.89847027234498 C 0.0 **** -0.24
33967 H 87.07234477294315 170.11753426372076 38.25570639864327 H 0.0 **** 0.06
33968 H 86.01287081331682 168.7076533860838 38.49776494170749 H 0.0 **** 0.06
33969 H 86.62439373547352 169.61416374823347 39.9031066146932 H 0.0 **** 0.06
33970 H 87.73578699445778 168.61352677645863 38.937060450166825 H 0.0 **** 0.06
33971 C 161.15576684978788 51.236561196006335 61.53066227472533 C 0.0 **** -0.24
33972 H 161.5911768832367 50.41289081786067 60.96529435591532 H 0.0 **** 0.06
33973 H 161.72189118712052 51.385048735464636 62.4510080790952 H 0.0 **** 0.06
33974 H 160.11937521533662 51.000676312546574 61.77568966209992 H 0.0 **** 0.06
33975 H 161.18943394964873 52.1464820064885 60.932163060164015 H 0.0 **** 0.06
33976 C 13.71499065212771 29.997766615627313 158.1817291798401 C 0.0 **** -0.24
33977 H 13.430912462029568 30.145437248384894 159.22412433999784 H 0.0 **** 0.06
33978 H 14.0497006503862 30.945057402146602 157.7589856817392 H 0.0 **** 0.06
33979 H 12.856143951050967 29.63137325138004 157.6198351347783 H 0.0 **** 0.06
33980 H 14.523856612911516 29.26840436704407 158.1267903501341 H 0.0 **** 0.06
33981 C 91.01924164613342 144.0796102380396 0.5796405507580573 C 0.0 **** -0.24
33982 H 90.60498463437125 143.33598243372663 1.261254461031882 H 0.0 **** 0.06
33983 H 90.71951039347834 145.07641006374482 0.9051954536452342 H 0.0 **** 0.06
33984 H 90.64420368893673 143.8973508067169 -0.427332491382856 H 0.0 **** 0.06
33985 H 92.10687492724392 144.0073528004972 0.5817363505048547 H 0.0 **** 0.06
33986 C 181.09805422604197 130.5144549311974 130.34707501142958 C 0.0 **** -0.24
33987 H 182.02362373553942 129.9571773016479 130.4922177459425 H 0.0 **** 0.06
33988 H 181.33311984926027 131.5390254996242 130.055693775982 H 0.0 **** 0.06
33989 H 180.52867689783898 130.5225684760768 131.27609992737922 H 0.0 **** 0.06
33990 H 180.50849267956565 130.04076673168333 129.56250803400724 H 0.0 **** 0.06
33991 C 121.0939426628388 128.64273032432368 139.83663543382715 C 0.0 **** -0.24
33992 H 120.39907018962981 129.0043373848672 139.07879293144848 H 0.0 **** 0.06
33993 H 121.77691013385962 129.4456879815931 140.11503286415933 H 0.0 **** 0.06
33994 H 121.66292054002676 127.80308926375199 139.4358639602969 H 0.0 **** 0.06
33995 H 120.53757348082229 128.31751292538286 140.71500302876467 H 0.0 **** 0.06
33996 C 2.8565875317808036 6.6863741297885895 88.00396028400496 C 0.0 **** -0.24
33997 H 2.303332044418994 5.810949810323223 87.66129813656852 H 0.0 **** 0.06
33998 H 3.884728037834776 6.401650857070081 88.22588690421759 H 0.0 **** 0.06
33999 H 2.386522823035932 7.081752776119146 88.9039672620678 H 0.0 **** 0.06
34000 H 2.849113466408369 7.447762971124234 87.22541882379036 H 0.0 **** 0.06
34001 C 81.33097512520106 86.62000163222646 134.06981467480722 C 0.0 **** -0.24
34002 H 82.01271336307349 87.45335654491981 134.23977422154482 H 0.0 **** 0.06
34003 H 81.53834216636352 86.17468667920303 133.0966938247432 H 0.0 **** 0.06
34004 H 80.30230553648306 86.98120513603612 134.09225594687913 H 0.0 **** 0.06
34005 H 81.4697307091194 85.87104426735897 134.84941036027232 H 0.0 **** 0.06
34006 C 49.488218492443124 5.628725376031923 55.44200540967893 C 0.0 **** -0.24
34007 H 49.8435774418119 6.624640667783012 55.177272651148854 H 0.0 **** 0.06
34008 H 49.835350362565535 5.373996255023371 56.443696098695 H 0.0 **** 0.06
34009 H 49.87561145063928 4.9029730571871255 54.72751612893825 H 0.0 **** 0.06
34010 H 48.39831397220421 5.614523646596496 55.42023065273372 H 0.0 **** 0.06
34011 C 133.6260799332709 129.41803283320655 197.33077628123135 C 0.0 **** -0.24
34012 H 134.2465031851298 128.68433196294316 197.84377693163879 H 0.0 **** 0.06
34013 H 133.08287081898607 130.01212532715957 198.06546576828478 H 0.0 **** 0.06
34014 H 132.9172891167275 128.90410465353207 196.6823018687957 H 0.0 **** 0.06
34015 H 134.2592127074269 130.07200998526122 196.73001635707524 H 0.0 **** 0.06
34016 C 106.2607703277472 83.76073573943788 26.748644303581358 C 0.0 **** -0.24
34017 H 105.34725106222112 84.30267396040057 26.99261190504211 H 0.0 **** 0.06
34018 H 106.17049052510549 82.72698431116103 27.08270302637723 H 0.0 **** 0.06
34019 H 107.10728862798393 84.23249915008131 27.248331956082325 H 0.0 **** 0.06
34020 H 106.41861498632068 83.78154224669566 25.66987701791163 H 0.0 **** 0.06
34021 C 131.6725612048312 166.01626857857676 167.55599915595968 C 0.0 **** -0.24
34022 H 131.22089421585932 165.75292531439231 168.5130853411856 H 0.0 **** 0.06
34023 H 131.34830337549852 167.0153723609685 167.2647841569285 H 0.0 **** 0.06
34024 H 131.3622968608446 165.29761369221137 166.79813778905302 H 0.0 **** 0.06
34025 H 132.75794476186942 166.0000559664027 167.65012326397806 H 0.0 **** 0.06
34026 C 21.549752236666507 123.6858151682645 14.897012890511348 C 0.0 **** -0.24
34027 H 20.606793433644157 123.55117053648954 15.427679658533748 H 0.0 **** 0.06
34028 H 21.41573499441691 123.41965908905397 13.847716440595974 H 0.0 **** 0.06
34029 H 22.31157094504198 123.04529216915913 15.340506079514284 H 0.0 **** 0.06
34030 H 21.862800251389103 124.72699453234483 14.97091242992775 H 0.0 **** 0.06
34031 C 184.03434318699215 156.74184387270492 48.7065726413891 C 0.0 **** -0.24
34032 H 184.2474660192044 155.73596867072916 48.34363540623443 H 0.0 **** 0.06
34033 H 183.63580645823882 156.68618547254943 49.719647813264686 H 0.0 **** 0.06
34034 H 183.3030240661021 157.21581466900528 48.053248318223865 H 0.0 **** 0.06
34035 H 184.95399152633163 157.3287347279621 48.70953637306303 H 0.0 **** 0.06
34036 C 62.968499841115374 50.76856475303822 7.120501084154881 C 0.0 **** -0.24
34037 H 63.199105365399646 51.648603032843255 6.52069829522199 H 0.0 **** 0.06
34038 H 63.8900448937552 50.35680486115933 7.5321188586625 H 0.0 **** 0.06
34039 H 62.48274315448748 50.02030993697426 6.494541145628659 H 0.0 **** 0.06
34040 H 62.299853330755525 51.049436901860446 7.934997486965926 H 0.0 **** 0.06
34041 C 82.48244091897948 39.42023651328316 184.55123768964452 C 0.0 **** -0.24
34042 H 83.3432342003257 38.76504732645253 184.42425067848595 H 0.0 **** 0.06
34043 H 81.57084946052726 38.87445345344213 184.3071648433186 H 0.0 **** 0.06
34044 H 82.58014613487825 40.280541041988954 183.88918822898418 H 0.0 **** 0.06
34045 H 82.43558426820539 39.76216628952625 185.58553222287622 H 0.0 **** 0.06
34046 C 13.44258088953876 30.70219542293519 1.313351503638927 C 0.0 **** -0.24
34047 H 13.417148858901186 30.88017007085662 2.389382155345629 H 0.0 **** 0.06
34048 H 13.129911413730404 29.67836756657465 1.1086761584711553 H 0.0 **** 0.06
34049 H 14.456553136176538 30.853689782532882 0.9448960825660038 H 0.0 **** 0.06
34050 H 12.766261772024514 31.396437923424315 0.8151191546115797 H 0.0 **** 0.06
34051 C 22.333966765399822 187.45085609323536 186.35982630753568 C 0.0 **** -0.24
34052 H 23.376537025176546 187.18418687335966 186.533798914273 H 0.0 **** 0.06
34053 H 21.84174845426172 187.63296167401924 187.3158422081264 H 0.0 **** 0.06
34054 H 21.831906350407735 186.63352882762905 185.84305349266748 H 0.0 **** 0.06
34055 H 22.286330320246975 188.35176080414658 185.74875500556772 H 0.0 **** 0.06
34056 C 198.93485119050897 111.96941475085418 152.87478179412005 C 0.0 **** -0.24
34057 H 198.87747709883882 112.98874987613439 152.4953206499584 H 0.0 **** 0.06
34058 H 199.55205751293332 111.94979372726695 153.7737684923897 H 0.0 **** 0.06
34059 H 199.37854565486202 111.32415859199745 152.11531985618214 H 0.0 **** 0.06
34060 H 197.93282273932672 111.6135522628885 153.11338301959938 H 0.0 **** 0.06
34061 C 121.2851424216419 105.50498175801471 162.75220630372326 C 0.0 **** -0.24
34062 H 122.20086603566858 104.98722824989292 163.0376485040635 H 0.0 **** 0.06
34063 H 120.90839277143345 105.08820312632858 161.81839693041303 H 0.0 **** 0.06
34064 H 121.49364789445906 106.56597832416952 162.61975477628368 H 0.0 **** 0.06
34065 H 120.53733085360832 105.37704911047621 163.53467852260889 H 0.0 **** 0.06
34066 C 47.87150846542045 46.5145260989422 58.61892383698499 C 0.0 **** -0.24
34067 H 48.84752258884555 46.97017631357578 58.450905972914555 H 0.0 **** 0.06
34068 H 47.17853303190235 46.84662201476431 57.845484087072705 H 0.0 **** 0.06
34069 H 47.49463952863873 46.812984926736334 59.5968971509233 H 0.0 **** 0.06
34070 H 47.96607193375789 45.42979694161336 58.58089667878885 H 0.0 **** 0.06
34071 C 57.380679301881685 133.99159596692743 157.4621356469147 C 0.0 **** -0.24
34072 H 57.123764972677364 133.30209410162934 156.65884873867014 H 0.0 **** 0.06
34073 H 56.66017148070776 133.8882512089515 158.27416400031603 H 0.0 **** 0.06
34074 H 57.358158479216144 135.0144549800625 157.08506277324213 H 0.0 **** 0.06
34075 H 58.38004572827589 133.76210681363057 157.83164769420566 H 0.0 **** 0.06
34076 C 110.56383314576843 102.34966745495922 53.647187299471796 C 0.0 **** -0.24
34077 H 110.29889097868198 101.3515570907609 53.996101375651534 H 0.0 **** 0.06
34078 H 109.94540724184586 102.6091378914355 52.78798291503023 H 0.0 **** 0.06
34079 H 111.61415105234408 102.36519084257156 53.357061480823745 H 0.0 **** 0.06
34080 H 110.39678952744629 103.06978544723714 54.44759292659836 H 0.0 **** 0.06
34081 C 102.60822492442054 67.03325048671084 24.663101200483624 C 0.0 **** -0.24
34082 H 102.74859336120554 67.37226920337338 25.68917852720506 H 0.0 **** 0.06
34083 H 102.6683357108391 67.88682066060238 23.98737096646863 H 0.0 **** 0.06
34084 H 101.63016459754746 66.56199132122902 24.56757909832686 H 0.0 **** 0.06
34085 H 103.38493585108884 66.31254701816692 24.4096365994358 H 0.0 **** 0.06
34086 C 159.89257461315742 37.627125482216016 26.941706119657624 C 0.0 **** -0.24
34087 H 160.8303930363067 38.14671217197683 27.136916129867757 H 0.0 **** 0.06
34088 H 159.26941808028693 38.23692074600912 26.286486779238714 H 0.0 **** 0.06
34089 H 159.36997829126358 37.45497622436494 27.88363204031336 H 0.0 **** 0.06
34090 H 160.09961905434142 36.67077983931925 26.46134553075916 H 0.0 **** 0.06
34091 C 178.3155556366473 191.7779878003753 91.7047536416085 C 0.0 **** -0.24
34092 H 177.2264956598503 191.8063617757073 91.710748693861 H 0.0 **** 0.06
34093 H 178.6649041565723 191.43271116929293 90.73075036554914 H 0.0 **** 0.06
34094 H 178.66545789319161 191.0946817295777 92.47924181447362 H 0.0 **** 0.06
34095 H 178.70703568149065 192.7765864025593 91.89748889459068 H 0.0 **** 0.06
34096 C 65.3634218008409 103.86658860819051 163.46578555445575 C 0.0 **** -0.24
34097 H 65.41151094663772 103.78163201219579 162.37992115010624 H 0.0 **** 0.06
34098 H 65.49822506555142 104.90919927352576 163.75471249218063 H 0.0 **** 0.06
34099 H 66.15163728706547 103.26023129179455 163.9129263057215 H 0.0 **** 0.06
34100 H 64.39176392576961 103.51468494213239 163.81442935024577 H 0.0 **** 0.06
34101 C 153.49970310361093 97.30862686046419 170.64413903494898 C 0.0 **** -0.24
34102 H 153.70145966693207 96.24191449663576 170.7362785055856 H 0.0 **** 0.06
34103 H 154.4365187071327 97.8620067316026 170.70819309324665 H 0.0 **** 0.06
34104 H 152.8354157955433 97.62416890549093 171.44899882658993 H 0.0 **** 0.06
34105 H 153.02540038112346 97.5073566284477 169.68342832178794 H 0.0 **** 0.06
34106 C 40.58643363276556 161.1271871242423 2.61183694296534 C 0.0 **** -0.24
34107 H 40.81757062457115 161.10106815810258 1.5464561680998372 H 0.0 **** 0.06
34108 H 39.55862475548777 161.46108877217844 2.751473141747681 H 0.0 **** 0.06
34109 H 41.265758878736065 161.81684925406842 3.112878897743485 H 0.0 **** 0.06
34110 H 40.70512045032436 160.12942768127175 3.0336926104496342 H 0.0 **** 0.06
34111 C 163.73456094690252 86.01760881539215 186.9709013436629 C 0.0 **** -0.24
34112 H 164.49323218979958 86.53276517968007 187.55825004866995 H 0.0 **** 0.06
34113 H 163.08369599823902 86.7517377645928 186.4945808464635 H 0.0 **** 0.06
34114 H 163.14302425459647 85.37558476837489 187.62356829292767 H 0.0 **** 0.06
34115 H 164.21732271819468 85.40980567283589 186.20587645078248 H 0.0 **** 0.06
34116 C 39.27485800074035 84.62978170499125 184.20489117556258 C 0.0 **** -0.24
34117 H 39.08394749444898 84.44838492730901 185.26284584432418 H 0.0 **** 0.06
34118 H 40.340852624501565 84.52493877382886 184.00496847296628 H 0.0 **** 0.06
34119 H 38.9528057610562 85.63778181091914 183.94489539082878 H 0.0 **** 0.06
34120 H 38.71959091315375 83.90558924572306 183.60655641673918 H 0.0 **** 0.06
34121 C 169.56141930056177 72.33372355705478 106.47304108406325 C 0.0 **** -0.24
34122 H 170.37005319312107 73.06266711297059 106.41555880728063 H 0.0 **** 0.06
34123 H 169.29112230149795 72.01227026831651 105.46660776600473 H 0.0 **** 0.06
34124 H 168.6955891371485 72.7899237168665 106.95364303873785 H 0.0 **** 0.06
34125 H 169.88944851068624 71.47282228175004 107.0553884967587 H 0.0 **** 0.06
34126 C 74.07186605924102 21.662309918201572 125.21112105804823 C 0.0 **** -0.24
34127 H 74.23196776708956 20.77123810023923 124.60345161004477 H 0.0 **** 0.06
34128 H 74.92578746509658 21.808321684414352 125.87370804085836 H 0.0 **** 0.06
34129 H 73.1674227556939 21.539393642471055 125.80552626185434 H 0.0 **** 0.06
34130 H 73.96378993212315 22.530734880330584 124.56020528071878 H 0.0 **** 0.06
34131 C 89.74516566435761 35.56640618473767 4.204479200168976 C 0.0 **** -0.24
34132 H 89.9027742737253 34.972291426565874 3.3038766907865806 H 0.0 **** 0.06
34133 H 90.66583395925238 36.09224519110927 4.458146148616095 H 0.0 **** 0.06
34134 H 89.46229895897119 34.91032787737683 5.027441748320484 H 0.0 **** 0.06
34135 H 88.94988708362689 36.290532204402496 4.026231676365342 H 0.0 **** 0.06
34136 C 104.4015518811097 22.0638056704299 193.09272043293836 C 0.0 **** -0.24
34137 H 105.13233588148711 22.054610924065997 192.28456830300166 H 0.0 **** 0.06
34138 H 103.40379343519305 21.903481868625846 192.68141021641242 H 0.0 **** 0.06
34139 H 104.43441608678225 23.02700225183736 193.60187067698115 H 0.0 **** 0.06
34140 H 104.63418519998726 21.269449068405947 193.80149684109136 H 0.0 **** 0.06
34141 C 153.3651283792276 93.43315348603804 138.2529892249178 C 0.0 **** -0.24
34142 H 153.122937045316 94.4084873412242 138.67611796397225 H 0.0 **** 0.06
34143 H 154.3250620591163 93.09672206125089 138.6447849756257 H 0.0 **** 0.06
34144 H 153.42256777945482 93.51264218594943 137.16815333442563 H 0.0 **** 0.06
34145 H 152.58959872468895 92.71749457316497 138.52500162709129 H 0.0 **** 0.06
34146 C 170.7646870007934 176.29147152972092 157.8791943166113 C 0.0 **** -0.24
34147 H 171.17109954858782 176.91583520100724 158.67429840390105 H 0.0 **** 0.06
34148 H 170.71443107119913 175.25667817066892 158.21865232243485 H 0.0 **** 0.06
34149 H 171.41011050067175 176.35490626351162 157.003111430692 H 0.0 **** 0.06
34150 H 169.76517222300438 176.63873509393514 157.61990127521327 H 0.0 **** 0.06
34151 C 36.84067544240213 82.89079651783095 87.18541069926133 C 0.0 **** -0.24
34152 H 35.78210540293912 82.94061345752652 86.93016096151334 H 0.0 **** 0.06
34153 H 37.10295966283502 81.86390128301159 87.44415940620686 H 0.0 **** 0.06
34154 H 37.04036468442092 83.54240405287021 88.03541980806995 H 0.0 **** 0.06
34155 H 37.43579130393732 83.21285462280798 86.33150066425455 H 0.0 **** 0.06
34156 C 38.83061955517255 167.29537018638686 75.6003190769652 C 0.0 **** -0.24
34157 H 38.76411688784606 168.35645283055857 75.83987844597846 H 0.0 **** 0.06
34158 H 37.8755062901875 166.9525454611712 75.20120811261785 H 0.0 **** 0.06
34159 H 39.07132768651371 166.73409265347635 76.50240875067584 H 0.0 **** 0.06
34160 H 39.612654920658684 167.14072482623908 74.85597089679942 H 0.0 **** 0.06
34161 C 38.146092216478934 178.270353911989 145.1380281332694 C 0.0 **** -0.24
34162 H 38.6108598252807 177.7106965056099 144.3263869951234 H 0.0 **** 0.06
34163 H 38.91315970406946 178.81675268715932 145.68724443009128 H 0.0 **** 0.06
34164 H 37.6383728873148 177.58035059153167 145.8114939219802 H 0.0 **** 0.06
34165 H 37.42276119084474 178.97443090535006 144.72567571628107 H 0.0 **** 0.06
34166 C 82.04864667615209 114.03039079455507 29.728435018323864 C 0.0 **** -0.24
34167 H 82.63082329220833 114.41954262449329 30.564034763402347 H 0.0 **** 0.06
34168 H 82.69895611886238 113.89788623058683 28.863110295272378 H 0.0 **** 0.06
34169 H 81.2538247235683 114.7346176379099 29.48217843704097 H 0.0 **** 0.06
34170 H 81.6115711268393 113.07143067027991 30.00541175099376 H 0.0 **** 0.06
34171 C 154.81757443157406 57.551689076314744 176.29088693072217 C 0.0 **** -0.24
34172 H 155.62009240900187 57.65662876179158 177.02123975535147 H 0.0 **** 0.06
34173 H 153.98336960512597 58.19275081125258 176.57312585006176 H 0.0 **** 0.06
34174 H 154.48620255879604 56.51318108257934 176.26352762145987 H 0.0 **** 0.06
34175 H 155.18314913445494 57.84142628933259 175.30562647212273 H 0.0 **** 0.06
34176 C 126.92188919471744 195.9731744341346 5.5550352324898995 C 0.0 **** -0.24
34177 H 127.62578059254602 196.00042459918208 6.387197490596861 H 0.0 **** 0.06
34178 H 127.43693221651549 195.63499196094995 4.655409754047525 H 0.0 **** 0.06
34179 H 126.5173464990402 196.9706446047635 5.388535653006187 H 0.0 **** 0.06
34180 H 126.10954714839173 195.28582816077304 5.789379347910568 H 0.0 **** 0.06
34181 C 117.92828479472382 158.78134545733863 70.04347227860043 C 0.0 **** -0.24
34182 H 118.1667891101676 159.7676762011804 69.64425421871725 H 0.0 **** 0.06
34183 H 118.85069001077716 158.2268425607562 70.2152303381028 H 0.0 **** 0.06
34184 H 117.30621926335016 158.24177170891423 69.32934391013735 H 0.0 **** 0.06
34185 H 117.38979617083407 158.8920062042613 70.98444617491276 H 0.0 **** 0.06
34186 C 7.318764712457465 60.209339340347924 27.951870644487997 C 0.0 **** -0.24
34187 H 6.930352809167715 60.1859203751323 26.933136895081702 H 0.0 **** 0.06
34188 H 7.442861506300801 61.24450822135168 28.26913243808974 H 0.0 **** 0.06
34189 H 8.28139844748199 59.700026778126244 27.98436167755358 H 0.0 **** 0.06
34190 H 6.618283718893792 59.70613940489051 28.618455138354932 H 0.0 **** 0.06
34191 C 110.29466682578365 3.4939737364367858 26.344389385161833 C 0.0 **** -0.24
34192 H 111.10055155136462 2.8299256395759116 26.659353905571095 H 0.0 **** 0.06
34193 H 110.05166898620794 4.179481990042959 27.156538494830897 H 0.0 **** 0.06
34194 H 109.4152489914213 2.9035524340343386 26.09027404322927 H 0.0 **** 0.06
34195 H 110.61413512238121 4.063544727986326 25.47137473081483 H 0.0 **** 0.06
34196 C 32.88423642347125 142.42629674958914 156.26517433099482 C 0.0 **** -0.24
34197 H 33.18662515865334 141.56769078824937 155.66604535703635 H 0.0 **** 0.06
34198 H 32.43497068078082 143.18050448897947 155.61904534875347 H 0.0 **** 0.06
34199 H 33.75808813118651 142.84792087764805 156.76257053593815 H 0.0 **** 0.06
34200 H 32.158262578889094 142.10989018868275 157.01418804852986 H 0.0 **** 0.06
34201 C 57.220562173007835 25.87579357112338 198.87397438032562 C 0.0 **** -0.24
34202 H 56.843686359044455 24.951680021042336 199.312701469069 H 0.0 **** 0.06
34203 H 56.60496441371863 26.712295474986888 199.204615642332 H 0.0 **** 0.06
34204 H 57.18196566103799 25.80381201129154 197.78719904058653 H 0.0 **** 0.06
34205 H 58.251384015911796 26.034627824595873 199.19198335631984 H 0.0 **** 0.06
34206 C 189.34290213357815 129.76693916347529 153.09967166392386 C 0.0 **** -0.24
34207 H 189.10846719704006 130.82145470927608 153.24745164108552 H 0.0 **** 0.06
34208 H 188.64233559391366 129.1568575222097 153.67026837528803 H 0.0 **** 0.06
34209 H 190.3589923772447 129.56918140240265 153.44087565582288 H 0.0 **** 0.06
34210 H 189.26005816029792 129.52138173850705 152.04138243662402 H 0.0 **** 0.06
34211 C 110.86698108242877 122.92780731491754 93.1942765847057 C 0.0 **** -0.24
34212 H 111.6413358694015 123.62836637452065 92.88266250050944 H 0.0 **** 0.06
34213 H 110.11537316927812 123.45643200161015 93.78267799640497 H 0.0 **** 0.06
34214 H 111.31258674907838 122.13789099370638 93.79876601733056 H 0.0 **** 0.06
34215 H 110.396325253496 122.49046159623228 92.312953984308 H 0.0 **** 0.06
34216 C 49.93024132700327 193.37658956678908 93.0787092390739 C 0.0 **** -0.24
34217 H 49.46034894738855 192.4806152283154 92.67213595499959 H 0.0 **** 0.06
34218 H 50.351529002307615 193.96722045392647 92.26511318716251 H 0.0 **** 0.06
34219 H 50.723190150621406 193.08892743925298 93.76921655293543 H 0.0 **** 0.06
34220 H 49.183939865781554 193.96907446026233 93.60931878820597 H 0.0 **** 0.06
34221 C 194.57942916198996 24.53157742570741 97.13208580439453 C 0.0 **** -0.24
34222 H 193.6899363621696 24.86202210413927 97.66773171236281 H 0.0 **** 0.06
34223 H 195.20148578281595 23.93192556921241 97.79677136843446 H 0.0 **** 0.06
34224 H 195.1425719985249 25.401605681741046 96.79364722372873 H 0.0 **** 0.06
34225 H 194.28363280919808 23.93294032395238 96.27066441144652 H 0.0 **** 0.06
34226 C 65.94079495097922 133.4489421582857 170.59420601641105 C 0.0 **** -0.24
34227 H 65.34565505396007 133.60029380530304 169.69334150039325 H 0.0 **** 0.06
34228 H 65.52763156051367 134.04783072015806 171.4067958388566 H 0.0 **** 0.06
34229 H 66.96961082100921 133.75431948993247 170.40472973089499 H 0.0 **** 0.06
34230 H 65.91899744550251 132.39515408509797 170.87200315136388 H 0.0 **** 0.06
34231 C 183.68999272753643 21.34824663129443 78.43855530504516 C 0.0 **** -0.24
34232 H 183.66913794630025 22.392573526736314 78.74856026541147 H 0.0 **** 0.06
34233 H 183.17575047916566 21.24286200472612 77.48287717437466 H 0.0 **** 0.06
34234 H 183.19163891651436 20.736841081291914 79.18993895244836 H 0.0 **** 0.06
34235 H 184.72423342533045 21.02206136265127 78.33210336129747 H 0.0 **** 0.06
34236 C 150.9398159622774 175.61916786187135 112.60752042947149 C 0.0 **** -0.24
34237 H 151.81182700426734 175.0708294113498 112.25293145507331 H 0.0 **** 0.06
34238 H 150.8104282601135 175.44438540503552 113.6753764997984 H 0.0 **** 0.06
34239 H 150.05362001932838 175.27779090703228 112.07312994139875 H 0.0 **** 0.06
34240 H 151.0832653353567 176.68501697304828 112.4282450939107 H 0.0 **** 0.06
34241 C 139.31156599604418 43.74488590051746 65.89406428804753 C 0.0 **** -0.24
34242 H 138.58782126502507 44.455420033871235 66.29341437623528 H 0.0 **** 0.06
34243 H 138.79512801249672 43.01355436048854 65.2714282029905 H 0.0 **** 0.06
34244 H 139.811367158653 43.23385173024113 66.7171994930934 H 0.0 **** 0.06
34245 H 140.05021644922056 44.27677215967765 65.29419579994116 H 0.0 **** 0.06
34246 C 41.110381354791286 127.17167154175357 164.2539539728206 C 0.0 **** -0.24
34247 H 41.116015525233706 126.95637053494326 163.18600856747443 H 0.0 **** 0.06
34248 H 40.755179017868215 126.29673832266238 164.79917031737557 H 0.0 **** 0.06
34249 H 40.449582749301385 128.01662097118611 164.45175534284408 H 0.0 **** 0.06
34250 H 42.12120629577373 127.41863252937236 164.58060810330238 H 0.0 **** 0.06
34251 C 145.24546987320113 63.559058199838006 35.324348523453864 C 0.0 **** -0.24
34252 H 145.64680925401404 63.93726888678154 36.26398145006692 H 0.0 **** 0.06
34253 H 144.32049967529753 63.01618360368883 35.51615041573416 H 0.0 **** 0.06
34254 H 145.9722114755376 62.889391775296815 34.86254310573062 H 0.0 **** 0.06
34255 H 145.04467967662174 64.39469312171889 34.6530123316673 H 0.0 **** 0.06
34256 C 124.55303250034876 160.8752018860858 8.468429143374813 C 0.0 **** -0.24
34257 H 124.01766144768249 160.08779354940182 8.99957568025561 H 0.0 **** 0.06
34258 H 125.40869490741602 160.4445525009557 7.9468808066190135 H 0.0 **** 0.06
34259 H 124.90062032579908 161.6228322873979 9.181425054726809 H 0.0 **** 0.06
34260 H 123.88499935857624 161.34487704069596 7.746475784435681 H 0.0 **** 0.06
34261 C 146.11677806143518 35.044840613738344 31.67778358621088 C 0.0 **** -0.24
34262 H 146.1633034770697 33.95706315039021 31.62998976066693 H 0.0 **** 0.06
34263 H 147.0900923404804 35.436980967601926 31.972758059511904 H 0.0 **** 0.06
34264 H 145.36641423589998 35.34391717437455 32.40948504017332 H 0.0 **** 0.06
34265 H 145.8465060780593 35.44035080644689 30.698388651825425 H 0.0 **** 0.06
34266 C 130.17865081967116 109.30864862101942 87.13919574186028 C 0.0 **** -0.24
34267 H 130.8777351776762 108.47308933793909 87.09714293035645 H 0.0 **** 0.06
34268 H 130.6863956154555 110.22233296395927 86.82710141676623 H 0.0 **** 0.06
34269 H 129.81410164102917 109.42554597360333 88.15970423540998 H 0.0 **** 0.06
34270 H 129.3385851518371 109.11333673273458 86.47294907990806 H 0.0 **** 0.06
34271 C 194.92130075722957 193.55759278292703 26.838479409645814 C 0.0 **** -0.24
34272 H 195.52524441704279 192.70737161276116 26.52125440554697 H 0.0 **** 0.06
34273 H 195.02206885151577 193.69176371442546 27.915975886392033 H 0.0 **** 0.06
34274 H 193.87516024263863 193.37286309651395 26.591694730436828 H 0.0 **** 0.06
34275 H 195.26246251238564 194.45669163506005 26.326442723092967 H 0.0 **** 0.06
34276 C 4.610038866827665 25.840999709723633 62.360751550905945 C 0.0 **** -0.24
34277 H 4.628482133107184 25.20016735364908 61.479381927227905 H 0.0 **** 0.06
34278 H 5.031000915506695 25.30255537867376 63.20996962808047 H 0.0 **** 0.06
34279 H 3.5808086234338248 26.124208238622742 62.583095284999445 H 0.0 **** 0.06
34280 H 5.199862621377633 26.73820790527992 62.16972249012372 H 0.0 **** 0.06
34281 C 181.73642719543741 60.62799083750838 130.19906405501138 C 0.0 **** -0.24
34282 H 180.99810615077988 61.41340351025542 130.03733696451582 H 0.0 **** 0.06
34283 H 182.71619809701795 60.9775933416921 129.87302914920235 H 0.0 **** 0.06
34284 H 181.45699682186364 59.74394587977163 129.62595511189693 H 0.0 **** 0.06
34285 H 181.77407679497367 60.37654688580935 131.25864421380993 H 0.0 **** 0.06
34286 C 89.9996523367835 10.065325786255563 84.48697987064105 C 0.0 **** -0.24
34287 H 90.22543421819873 9.765154126987476 83.46366994574541 H 0.0 **** 0.06
34288 H 90.07718270829602 9.199655655066252 85.14430774487977 H 0.0 **** 0.06
34289 H 88.98728827689715 10.466723448778133 84.53168565203868 H 0.0 **** 0.06
34290 H 90.708329323003 10.829727347679977 84.8051164084352 H 0.0 **** 0.06
34291 C 20.181873759032413 101.30350106917922 55.28945347068185 C 0.0 **** -0.24
34292 H 19.971519250657423 101.10642952376088 56.3411951185532 H 0.0 **** 0.06
34293 H 20.772497199589296 100.48443589742055 54.87831858782084 H 0.0 **** 0.06
34294 H 20.740399766618893 102.23460873101902 55.20012331283169 H 0.0 **** 0.06
34295 H 19.24387811232002 101.38753564791898 54.741070367120074 H 0.0 **** 0.06
34296 C 165.83528390728827 186.3991611082075 56.08705328974588 C 0.0 **** -0.24
34297 H 165.18280403079586 187.2527091767165 56.27278536102597 H 0.0 **** 0.06
34298 H 165.40962572049776 185.51000492501686 56.55373959143583 H 0.0 **** 0.06
34299 H 166.81999304924275 186.59674307793173 56.511280782226834 H 0.0 **** 0.06
34300 H 165.92648504613362 186.23830385702996 55.01319856808385 H 0.0 **** 0.06
34301 C 13.507344583700132 191.5928563607834 36.851024371693995 C 0.0 **** -0.24
34302 H 13.323870555636063 191.44691770750245 37.915779219053775 H 0.0 **** 0.06
34303 H 12.61291662908775 192.00497667393915 36.38221076601741 H 0.0 **** 0.06
34304 H 13.751546954743503 190.63632589498522 36.39084471715785 H 0.0 **** 0.06
34305 H 14.338748487850467 192.28416571053125 36.7178718770582 H 0.0 **** 0.06
34306 C 184.94093299178343 169.3004873617645 143.88114684335804 C 0.0 **** -0.24
34307 H 184.35692741522308 169.96763670230627 144.51628144131396 H 0.0 **** 0.06
34308 H 185.63462174131809 168.72811808435893 144.49696013484288 H 0.0 **** 0.06
34309 H 185.50080440308113 169.89008161994462 143.15492765891435 H 0.0 **** 0.06
34310 H 184.27110314295098 168.61926685793603 143.3578245252483 H 0.0 **** 0.06
34311 C 126.71373553062779 79.25702262282925 50.817999551083574 C 0.0 **** -0.24
34312 H 125.67812958039252 78.95217716987122 50.662547694116725 H 0.0 **** 0.06
34313 H 126.75926435431944 80.33990943130584 50.93707509738695 H 0.0 **** 0.06
34314 H 127.31298497936248 78.95967174200007 49.95836579226835 H 0.0 **** 0.06
34315 H 127.10222231082881 78.77579068385165 51.71580606409479 H 0.0 **** 0.06
34316 C 2.038722209781895 89.35484041931997 33.13580533558178 C 0.0 **** -0.24
34317 H 3.0694131367953332 89.45733268700485 33.477027045638636 H 0.0 **** 0.06
34318 H 1.9837173702815107 88.57525783540575 32.375621044263994 H 0.0 **** 0.06
34319 H 1.701282937551241 90.30077504426811 32.712837141165664 H 0.0 **** 0.06
34320 H 1.4035756108849569 89.08574811128528 33.97888823646335 H 0.0 **** 0.06
34321 C 75.41703602542196 79.84596641998453 178.90226452618415 C 0.0 **** -0.24
34322 H 74.48405226770727 79.87059952869316 178.34057852251198 H 0.0 **** 0.06
34323 H 75.83056744026874 80.85251255513728 178.9642187550402 H 0.0 **** 0.06
34324 H 76.12745057794297 79.19107227039436 178.3977286014269 H 0.0 **** 0.06
34325 H 75.22634929641056 79.46833304223927 179.90758403702387 H 0.0 **** 0.06
34326 C 160.0092441350888 46.47915562921517 78.60159906849333 C 0.0 **** -0.24
34327 H 159.50082498788106 47.39452064436102 78.90643274145441 H 0.0 **** 0.06
34328 H 159.37349966604216 45.62109936598182 78.81969331247075 H 0.0 **** 0.06
34329 H 160.94635594583272 46.38572735778553 79.14890086714678 H 0.0 **** 0.06
34330 H 160.21329571958043 46.51713695362312 77.53209917301939 H 0.0 **** 0.06
34331 C 178.9715812667455 162.4427034769526 174.14547467704043 C 0.0 **** -0.24
34332 H 179.2562409077897 163.33857079748532 174.69740068466757 H 0.0 **** 0.06
34333 H 179.5242611494875 162.40327468491472 173.20699878911378 H 0.0 **** 0.06
34334 H 177.90214096382314 162.4678279877739 173.9388884814654 H 0.0 **** 0.06
34335 H 179.20556142894768 161.56056229209145 174.74179414256332 H 0.0 **** 0.06
34336 C 121.11391403801349 96.53056864027977 163.0538390558313 C 0.0 **** -0.24
34337 H 120.57287422514969 96.27209278996364 162.1441644903361 H 0.0 **** 0.06
34338 H 120.41627485895242 96.92942943089918 163.79039613596828 H 0.0 **** 0.06
34339 H 121.87021764230605 97.28232706169388 162.82484593779105 H 0.0 **** 0.06
34340 H 121.59786497981383 95.63938169944498 163.45433627215297 H 0.0 **** 0.06
34341 C 35.976103378381396 50.87545592534656 102.28435583302846 C 0.0 **** -0.24
34342 H 36.63309081718677 50.0768689840412 101.94180210758913 H 0.0 **** 0.06
34343 H 35.03975148560528 50.44767771467673 102.64237624296692 H 0.0 **** 0.06
34344 H 35.771700475465536 51.5573655936831 101.4587897575397 H 0.0 **** 0.06
34345 H 36.45987466690124 51.421268069145924 103.09405584827593 H 0.0 **** 0.06
34346 C 138.91437934444144 196.72126947877177 30.894040939733287 C 0.0 **** -0.24
34347 H 138.4800259857783 196.6079719378778 31.88690321189975 H 0.0 **** 0.06
34348 H 139.40041000413612 195.78998505747717 30.601139535018717 H 0.0 **** 0.06
34349 H 139.64903889447277 197.52545126215819 30.908276650117415 H 0.0 **** 0.06
34350 H 138.12670649343897 196.96033222715727 30.1786500034394 H 0.0 **** 0.06
34351 C 193.35261327907054 115.38530774443035 192.1306800151233 C 0.0 **** -0.24
34352 H 194.31407349776563 115.40099013914894 192.6436088455016 H 0.0 **** 0.06
34353 H 193.21507865967752 114.41816161082633 191.64713863426442 H 0.0 **** 0.06
34354 H 193.33054971230536 116.17414105174976 191.37773716970938 H 0.0 **** 0.06
34355 H 192.55260691110513 115.54947410295557 192.85244721865516 H 0.0 **** 0.06
34356 C 85.8371877612733 136.42005663028934 129.93865180359433 C 0.0 **** -0.24
34357 H 85.7851816029683 136.37692634020993 128.8504910471159 H 0.0 **** 0.06
34358 H 85.47033922538799 137.38785981464608 130.28169239535825 H 0.0 **** 0.06
34359 H 86.87086437405424 136.28855488650711 130.2587246649826 H 0.0 **** 0.06
34360 H 85.22118974964303 135.62672678888862 130.36292990890212 H 0.0 **** 0.06
34361 C 0.34113398034508435 181.91737633092532 58.31708446048488 C 0.0 **** -0.24
34362 H 1.4195949200792413 182.07521650718445 58.33530991929179 H 0.0 **** 0.06
34363 H 0.11111917673718352 181.05704179791107 57.68800785205897 H 0.0 **** 0.06
34364 H -0.14917894264274878 182.8038413540527 57.91533743510686 H 0.0 **** 0.06
34365 H -0.015188242266503948 181.73255517311952 59.33068117727727 H 0.0 **** 0.06
34366 C 15.825571776793026 40.69045529089455 139.61925258047947 C 0.0 **** -0.24
34367 H 15.326466788459697 40.35359124442493 140.52854435713343 H 0.0 **** 0.06
34368 H 15.084712915003252 41.08579989819225 138.92389764709722 H 0.0 **** 0.06
34369 H 16.34550731150972 39.85026975987114 139.15856830292694 H 0.0 **** 0.06
34370 H 16.544688649997056 41.4703800904217 139.8670002015364 H 0.0 **** 0.06
34371 C 191.51893800363078 172.71775426349748 52.676911051641966 C 0.0 **** -0.24
34372 H 191.67790116042423 171.71534232159746 52.279353889839186 H 0.0 **** 0.06
34373 H 192.48262517603663 173.18097885314674 52.89128390417973 H 0.0 **** 0.06
34374 H 190.93392586531414 172.65581503994625 53.59439620552284 H 0.0 **** 0.06
34375 H 190.98093667866243 173.31808342140752 51.94309216133692 H 0.0 **** 0.06
34376 C 110.04133595354523 134.67679534862242 72.51182343445237 C 0.0 **** -0.24
34377 H 109.78119068096288 135.6680992945604 72.88388743585232 H 0.0 **** 0.06
34378 H 111.05205448005307 134.69727699371452 72.1025432437003 H 0.0 **** 0.06
34379 H 109.3381448427939 134.38445324815186 71.73189969267285 H 0.0 **** 0.06
34380 H 109.99563956765854 133.9580621060961 73.33024939753625 H 0.0 **** 0.06
34381 C 25.49153942873582 118.72362402647013 134.1936345944655 C 0.0 **** -0.24
34382 H 26.444794970573554 118.59309386367408 134.70645078388418 H 0.0 **** 0.06
34383 H 25.000077431210798 119.62321950233593 134.564218954544 H 0.0 **** 0.06
34384 H 24.856711357059282 117.85751736132795 134.38375106417425 H 0.0 **** 0.06
34385 H 25.66523030664382 118.81862173535745 133.12264600644903 H 0.0 **** 0.06
34386 C 33.13164050965736 15.182855534415097 84.88765129592826 C 0.0 **** -0.24
34387 H 32.75703071842787 15.477862399691162 85.86860449008694 H 0.0 **** 0.06
34388 H 34.178030223878636 14.888715315412043 84.97267948157395 H 0.0 **** 0.06
34389 H 33.044174781181226 16.022017092104022 84.19864238758589 H 0.0 **** 0.06
34390 H 32.5474681047026 14.342601080207714 84.51398471985644 H 0.0 **** 0.06
34391 C 155.61374566597652 141.90734562676505 12.564798769064396 C 0.0 **** -0.24
34392 H 156.50437857724165 142.53407073546953 12.603802942104181 H 0.0 **** 0.06
34393 H 154.80968268013999 142.3834577375046 13.125917877741387 H 0.0 **** 0.06
34394 H 155.83499227966388 140.93358930164914 13.002122726881197 H 0.0 **** 0.06
34395 H 155.30638793268224 141.77793043399322 11.526528265669413 H 0.0 **** 0.06
34396 C 63.62890230982005 177.68381780951293 83.8729910193058 C 0.0 **** -0.24
34397 H 62.77839614530339 177.36247915338575 84.47334374198513 H 0.0 **** 0.06
34398 H 63.79221590066072 178.75227813747145 84.01706010383472 H 0.0 **** 0.06
34399 H 63.427971040900914 177.48509068314303 82.8209768538735 H 0.0 **** 0.06
34400 H 64.51902697215544 177.13554275118346 84.18281555981233 H 0.0 **** 0.06
34401 C 144.70526533512907 43.62454975454813 25.302745754927003 C 0.0 **** -0.24
34402 H 143.6789913664765 43.257072342144156 25.288682218833216 H 0.0 **** 0.06
34403 H 145.16733209233175 43.44560420505752 24.331787728785486 H 0.0 **** 0.06
34404 H 145.26713405163005 43.10168042316077 26.076447171114566 H 0.0 **** 0.06
34405 H 144.70553284003287 44.69432131177352 25.51337206065466 H 0.0 **** 0.06
34406 C 71.36819310466905 73.42358129563328 11.538008740394353 C 0.0 **** -0.24
34407 H 70.56443092509176 73.16259740822812 12.226667188318103 H 0.0 **** 0.06
34408 H 72.03894440365899 74.13754071553252 12.017234522177738 H 0.0 **** 0.06
34409 H 70.94494398537825 73.86877323155515 10.6385378023447 H 0.0 **** 0.06
34410 H 71.92414040488049 72.52388636912599 11.27215851043102 H 0.0 **** 0.06
34411 C 192.10485090604163 75.61602289957037 144.25201697242895 C 0.0 **** -0.24
34412 H 191.02393275080124 75.47600357322499 144.21203892387 H 0.0 **** 0.06
34413 H 192.52476584517808 75.48388103825586 143.2556522697299 H 0.0 **** 0.06
34414 H 192.5405216430239 74.88304339255713 144.9309004162502 H 0.0 **** 0.06
34415 H 192.3280027686668 76.62031691925792 144.6110663195181 H 0.0 **** 0.06
34416 C 3.833131932472355 108.8601294394102 0.42319957285984344 C 0.0 **** -0.24
34417 H 3.621111043223948 109.27958782208376 -0.5603295282726108 H 0.0 **** 0.06
34418 H 2.8947890572171104 108.67180774881083 0.9467913172973041 H 0.0 **** 0.06
34419 H 4.434022883559493 109.56537509408395 0.9965321929444713 H 0.0 **** 0.06
34420 H 4.380021880716072 107.92421920960388 0.30875260322490305 H 0.0 **** 0.06
34421 C 168.77815555861267 21.82318632507949 32.5009548623988 C 0.0 **** -0.24
34422 H 168.97965206222673 22.81039701323121 32.917677689459026 H 0.0 **** 0.06
34423 H 168.20154853377136 21.23817628883816 33.216862160869425 H 0.0 **** 0.06
34424 H 169.72052438687817 21.318379622473003 32.292036617651235 H 0.0 **** 0.06
34425 H 168.21037372718516 21.929724239942743 31.57611748889201 H 0.0 **** 0.06
34426 C 128.67997642872785 100.6410873121037 168.38061255139183 C 0.0 **** -0.24
34427 H 128.40828152122134 99.58959487644714 168.47630073414368 H 0.0 **** 0.06
34428 H 127.78057638512442 101.25475289713498 168.4390917053695 H 0.0 **** 0.06
34429 H 129.1689467234433 100.80452058496238 167.42020154537536 H 0.0 **** 0.06
34430 H 129.35990619399982 100.91507229314422 169.18673128165838 H 0.0 **** 0.06
34431 C 189.9522034766841 92.93814892085456 142.03295556189852 C 0.0 **** -0.24
34432 H 189.38973686399544 93.78203071870777 142.43389761284558 H 0.0 **** 0.06
34433 H 190.06885671638108 92.17896409969296 142.80600801809078 H 0.0 **** 0.06
34434 H 190.93428711627428 93.27910482368685 141.70636030105177 H 0.0 **** 0.06
34435 H 189.41347238466477 92.51418376255788 141.18524626745122 H 0.0 **** 0.06
34436 C 36.17040304526077 136.32110791977652 187.3962124993253 C 0.0 **** -0.24
34437 H 35.153217296804 135.93095021051369 187.41464558134285 H 0.0 **** 0.06
34438 H 36.14710357688733 137.38833028799138 187.17522779613273 H 0.0 **** 0.06
34439 H 36.743674947943305 135.80309412788 186.62826673988104 H 0.0 **** 0.06
34440 H 36.63790017388703 136.16181731541508 188.36807443796832 H 0.0 **** 0.06
34441 C 150.0979350740319 90.07727042999147 161.15464501746465 C 0.0 **** -0.24
34442 H 150.07460965998396 91.04831689000173 161.64909762064593 H 0.0 **** 0.06
34443 H 149.08932963088463 89.666318133723 161.1139516944586 H 0.0 **** 0.06
34444 H 150.74388249646893 89.40068036355822 161.7144597176466 H 0.0 **** 0.06
34445 H 150.4844130423225 90.19405271312334 160.1427061174353 H 0.0 **** 0.06
34446 C 7.876501666758159 161.26600105169348 44.90390650662651 C 0.0 **** -0.24
34447 H 7.65503738727471 160.25236185586735 44.57067561958942 H 0.0 **** 0.06
34448 H 7.181007034599368 161.96169164865347 44.43356140990423 H 0.0 **** 0.06
34449 H 8.896874646042285 161.5252995452286 44.62336607271203 H 0.0 **** 0.06
34450 H 7.771079873361543 161.32388371493641 45.98684810532049 H 0.0 **** 0.06
34451 C 3.5280304635831072 58.10204310185705 59.437553064273615 C 0.0 **** -0.24
34452 H 2.6560964567979184 58.19665351970454 60.08551885049279 H 0.0 **** 0.06
34453 H 3.4462828722802428 58.811126637300006 58.61295280808936 H 0.0 **** 0.06
34454 H 3.577614497883978 57.08851844959159 59.041339921772774 H 0.0 **** 0.06
34455 H 4.431117125997027 58.313107268574484 60.01107647300469 H 0.0 **** 0.06
34456 C 87.99454986559215 137.31344070933903 34.290845067225035 C 0.0 **** -0.24
34457 H 89.06237305245969 137.39011045949917 34.49187998846031 H 0.0 **** 0.06
34458 H 87.81062403141186 136.4768306129822 33.6157802215767 H 0.0 **** 0.06
34459 H 87.64465867660829 138.23686453862842 33.829267043920964 H 0.0 **** 0.06
34460 H 87.4591305689463 137.14991804087686 35.226492550078774 H 0.0 **** 0.06
34461 C 145.12512296330317 94.22218810749098 47.93247512442808 C 0.0 **** -0.24
34462 H 145.6856084409218 93.61712721634615 48.644714562609195 H 0.0 **** 0.06
34463 H 145.64588183633398 94.23205185484065 46.97440800346328 H 0.0 **** 0.06
34464 H 145.0391501163819 95.24188572318445 48.309362572627464 H 0.0 **** 0.06
34465 H 144.12955271720386 93.79830162610753 47.80017688742315 H 0.0 **** 0.06
34466 C 79.03961243754571 73.22667848122099 164.18136739678005 C 0.0 **** -0.24
34467 H 77.96472195451645 73.38737697448985 164.26912925451865 H 0.0 **** 0.06
34468 H 79.42383164960472 72.81964663003103 165.11756469835353 H 0.0 **** 0.06
34469 H 79.53290677378982 74.17528991545035 163.9677140719914 H 0.0 **** 0.06
34470 H 79.23698937227186 72.52440040491292 163.37106156225644 H 0.0 **** 0.06
34471 C 94.26653927140705 195.2836837636065 134.98377014400657 C 0.0 **** -0.24
34472 H 94.44758178813015 194.26218148120503 134.6469149653648 H 0.0 **** 0.06
34473 H 94.58372480805178 195.3838928185491 136.02253055763038 H 0.0 **** 0.06
34474 H 93.20395476065698 195.50942143707218 134.90505990107062 H 0.0 **** 0.06
34475 H 94.83322613932592 195.97646704908593 134.36151537355843 H 0.0 **** 0.06
34476 C 35.55661090219536 33.111228373481666 133.48127946911083 C 0.0 **** -0.24
34477 H 35.42844098824759 34.18484545298345 133.33984558585624 H 0.0 **** 0.06
34478 H 36.51259305926084 32.801811533266786 133.05703301994424 H 0.0 **** 0.06
34479 H 34.74706964748273 32.580467488921215 132.9800235191039 H 0.0 **** 0.06
34480 H 35.538443426638224 32.88051964245062 134.54586346321878 H 0.0 **** 0.06
34481 C 166.10849397409586 28.446195721783624 86.80833512501678 C 0.0 **** -0.24
34482 H 166.1212861051153 27.357003143339114 86.75538612277381 H 0.0 **** 0.06
34483 H 165.64197309262903 28.847312727435792 85.90879185819216 H 0.0 **** 0.06
34484 H 167.13087686913832 28.818091195836814 86.88573464846618 H 0.0 **** 0.06
34485 H 165.5412085725152 28.760454678598762 87.6840880872436 H 0.0 **** 0.06
34486 C 152.00686715609834 72.31261201873224 63.99666261898443 C 0.0 **** -0.24
34487 H 151.61906741784918 71.4656096957471 64.56161667537528 H 0.0 **** 0.06
34488 H 151.47081414904463 72.39436736531479 63.05084977809038 H 0.0 **** 0.06
34489 H 153.06861480068272 72.16394360399636 63.80139789653812 H 0.0 **** 0.06
34490 H 151.86889577079688 73.22824398210832 64.57300428755201 H 0.0 **** 0.06
34491 C 98.45046433791003 44.632271405539086 35.585595465489234 C 0.0 **** -0.24
34492 H 99.06067428939753 45.41257943507867 35.12990160599017 H 0.0 **** 0.06
34493 H 97.7089673451641 44.284944318234864 34.86626954368171 H 0.0 **** 0.06
34494 H 97.94451673112673 45.03382967546901 36.46338966110865 H 0.0 **** 0.06
34495 H 99.0878169719692 43.79913868182422 35.88273209741506 H 0.0 **** 0.06
34496 C 135.87289799795602 33.68393230422896 9.590442426915416 C 0.0 **** -0.24
34497 H 135.75939646719056 34.645554256426436 10.090872546245606 H 0.0 **** 0.06
34498 H 136.87757688090585 33.29983396869059 9.766034241576335 H 0.0 **** 0.06
34499 H 135.7127763167732 33.81070456717379 8.520024046092828 H 0.0 **** 0.06
34500 H 135.13965568797298 32.980058544602514 9.986849002906865 H 0.0 **** 0.06
34501 C 15.255896516742723 96.29330779197943 129.65913841196482 C 0.0 **** -0.24
34502 H 14.203029503666812 96.01153712698422 129.63055447834324 H 0.0 **** 0.06
34503 H 15.703614709293959 95.93144135273334 130.58602936290154 H 0.0 **** 0.06
34504 H 15.342025132909697 97.37902997679424 129.6140398056367 H 0.0 **** 0.06
34505 H 15.773585365161807 95.85081147192432 128.80794457367534 H 0.0 **** 0.06
34506 C 171.9036586010096 174.44036660113665 56.18142166990353 C 0.0 **** -0.24
34507 H 172.49002651271914 174.43482659631496 55.26239791036788 H 0.0 **** 0.06
34508 H 171.13640448814868 175.21212164617734 56.11781377710827 H 0.0 **** 0.06
34509 H 172.55804138918302 174.64587796863893 57.027875390722414 H 0.0 **** 0.06
34510 H 171.43111873016323 173.46734198295013 56.31506987054098 H 0.0 **** 0.06
34511 C 123.9216938850742 3.2137870293946023 188.35511626422357 C 0.0 **** -0.24
34512 H 123.49425246343299 3.8663863712508757 189.11565659114763 H 0.0 **** 0.06
34513 H 123.13334275701152 2.6041796508403223 187.91321578724848 H 0.0 **** 0.06
34514 H 124.6692423175873 2.5654590739423426 188.81191915344886 H 0.0 **** 0.06
34515 H 124.39125222954408 3.8192309475466786 187.5791624459253 H 0.0 **** 0.06
34516 C 79.92197426825317 123.03563131832124 171.3202743927819 C 0.0 **** -0.24
34517 H 80.91117963015529 122.57955024272783 171.34260069452355 H 0.0 **** 0.06
34518 H 79.38291895693669 122.68970958793037 170.43721309706052 H 0.0 **** 0.06
34519 H 80.02298355184917 124.1200198104734 171.2830804187957 H 0.0 **** 0.06
34520 H 79.37029857153192 122.75216147054843 172.21745636237085 H 0.0 **** 0.06
34521 C 157.0425181409106 10.226826409364548 87.42729712656836 C 0.0 **** -0.24
34522 H 157.582872967818 9.500258637476861 86.82053554657037 H 0.0 **** 0.06
34523 H 157.6845763243704 10.573251867482497 88.23806738113018 H 0.0 **** 0.06
34524 H 156.15088774869085 9.75934478647946 87.84506722805511 H 0.0 **** 0.06
34525 H 156.75211928954243 11.074619476508872 86.80686896562591 H 0.0 **** 0.06
34526 C 75.76376527510207 109.48353763550409 36.68289378166145 C 0.0 **** -0.24
34527 H 75.69990050103104 108.9397186047367 37.62595998203841 H 0.0 **** 0.06
34528 H 76.78933525195148 109.821550802546 36.52876383458819 H 0.0 **** 0.06
34529 H 75.09789810886691 110.34557131965133 36.71519725168949 H 0.0 **** 0.06
34530 H 75.46994662674042 108.82667541014769 35.86420745597509 H 0.0 **** 0.06
34531 C 61.24493827199288 137.89116726300486 40.118403336534755 C 0.0 **** -0.24
34532 H 60.86293972314316 137.41825354590523 39.2139203916297 H 0.0 **** 0.06
34533 H 60.453676706626666 137.93558778733527 40.86708661080536 H 0.0 **** 0.06
34534 H 61.58241960558223 138.90140354262158 39.885240931729584 H 0.0 **** 0.06
34535 H 62.08177446774188 137.30959735320428 40.50644241348979 H 0.0 **** 0.06
34536 C 82.23602688786764 43.60156747913146 113.59491060237701 C 0.0 **** -0.24
34537 H 81.36692318221492 44.25373651559346 113.68401722344933 H 0.0 **** 0.06
34538 H 81.96533291473384 42.71116083598031 113.028420142192 H 0.0 **** 0.06
34539 H 82.5736212435437 43.31033238472787 114.58988138950713 H 0.0 **** 0.06
34540 H 83.03692862521643 44.132107680055356 113.08018137309995 H 0.0 **** 0.06
34541 C 78.31413048447789 157.34629002138365 62.20196813126833 C 0.0 **** -0.24
34542 H 78.63955510371576 157.09381534775272 61.192931446026705 H 0.0 **** 0.06
34543 H 79.0511201164544 158.00217276335263 62.6673935641449 H 0.0 **** 0.06
34544 H 78.2166263520927 156.43423706338785 62.79079665260983 H 0.0 **** 0.06
34545 H 77.35072896328383 157.8546150077916 62.15753944325573 H 0.0 **** 0.06
34546 C 184.01729659862812 16.88516404058494 139.29399900171046 C 0.0 **** -0.24
34547 H 184.99093482545328 16.44015730873491 139.49808056498472 H 0.0 **** 0.06
34548 H 183.97137878825768 17.878490494557468 139.74204902599502 H 0.0 **** 0.06
34549 H 183.23454424238744 16.257378808438744 139.7199287332768 H 0.0 **** 0.06
34550 H 183.87310962836153 16.965906607020344 138.2168089404493 H 0.0 **** 0.06
34551 C 126.1846296356168 12.347678753505555 186.68290055117032 C 0.0 **** -0.24
34552 H 126.82643213621981 12.623486868219253 185.84599725772267 H 0.0 **** 0.06
34553 H 125.76594087436646 13.248648718692394 187.13149226893646 H 0.0 **** 0.06
34554 H 126.77036213376891 11.808599765433314 187.42671500560553 H 0.0 **** 0.06
34555 H 125.3758351363445 11.710827977553272 186.32452054227005 H 0.0 **** 0.06
34556 C 78.74840551509587 150.5663851147013 123.8102127529294 C 0.0 **** -0.24
34557 H 79.51100111425305 151.05311700024228 124.41787359388977 H 0.0 **** 0.06
34558 H 78.40259186945926 149.665257084296 124.31575984081493 H 0.0 **** 0.06
34559 H 79.1719004011398 150.29938103367198 122.84144621390018 H 0.0 **** 0.06
34560 H 77.90986308228322 151.2469007491601 123.66531374134811 H 0.0 **** 0.06
34561 C 108.00161397638081 174.15536448659964 74.97948081732223 C 0.0 **** -0.24
34562 H 108.93845686589412 174.48825880760455 74.53190795269958 H 0.0 **** 0.06
34563 H 107.90414111103487 173.07658011857748 74.85632231144733 H 0.0 **** 0.06
34564 H 107.16704057766731 174.6557042473659 74.48872421830309 H 0.0 **** 0.06
34565 H 107.99995889824012 174.40195010343757 76.04121170419143 H 0.0 **** 0.06
34566 C 40.11498932199345 179.402906830777 107.556334696986 C 0.0 **** -0.24
34567 H 40.27818311316864 178.579512184842 108.25144671615217 H 0.0 **** 0.06
34568 H 39.44052724161929 180.1302573277377 108.00820286303161 H 0.0 **** 0.06
34569 H 39.672788479757685 179.02010472160114 106.63625227997386 H 0.0 **** 0.06
34570 H 41.067236713960426 179.88245101310227 107.32957939896446 H 0.0 **** 0.06
34571 C 98.86314323967457 8.047791864309232 40.613167309928485 C 0.0 **** -0.24
34572 H 98.53003211852115 9.080698380987293 40.71390850834962 H 0.0 **** 0.06
34573 H 99.8386202940751 8.026652664247166 40.12629119283446 H 0.0 **** 0.06
34574 H 98.14523419420516 7.491721187875655 40.010920956327794 H 0.0 **** 0.06
34575 H 98.93979261111471 7.592577173497006 41.60081104672412 H 0.0 **** 0.06
34576 C 155.40086970159274 63.897741025346136 87.08598125554181 C 0.0 **** -0.24
34577 H 156.46900446429837 64.11152529246051 87.0374002196246 H 0.0 **** 0.06
34578 H 154.85343647944455 64.65248335160283 86.52119583178174 H 0.0 **** 0.06
34579 H 155.07436235794873 63.91349912858273 88.12538988554073 H 0.0 **** 0.06
34580 H 155.2078987420444 62.91276847072152 86.65976419974064 H 0.0 **** 0.06
34581 C 180.79039034633314 110.82916822993147 159.45314929496118 C 0.0 **** -0.24
34582 H 181.6082289738809 111.43311492006785 159.06088912155403 H 0.0 **** 0.06
34583 H 180.78528922112747 109.85897204805951 158.9571644036974 H 0.0 **** 0.06
34584 H 179.8436664501013 111.33704714882174 159.26895767870985 H 0.0 **** 0.06
34585 H 180.92480400963592 110.68949140988772 160.52551631394638 H 0.0 **** 0.06
34586 C 170.77826772798204 20.4054359574493 123.29037459474742 C 0.0 **** -0.24
34587 H 170.5254316918204 19.939384826354882 124.24310959471876 H 0.0 **** 0.06
34588 H 169.86131037993098 20.656630484150924 122.75555756655609 H 0.0 **** 0.06
34589 H 171.36956052725293 19.712556339266484 122.69334000564828 H 0.0 **** 0.06
34590 H 171.35423245523899 21.31282849134675 123.47222097515692 H 0.0 **** 0.06
34591 C 63.53168049614561 31.5137416532678 33.00038886637951 C 0.0 **** -0.24
34592 H 62.52153676948535 31.872325202233583 33.197427354067 H 0.0 **** 0.06
34593 H 64.03981159938832 32.207978232461926 32.33064186207612 H 0.0 **** 0.06
34594 H 63.48355994165007 30.52865597153459 32.536054613035645 H 0.0 **** 0.06
34595 H 64.08156362041791 31.445728466577577 33.93963615105359 H 0.0 **** 0.06
34596 C 17.214035122042162 64.73809329537278 3.425845435722124 C 0.0 **** -0.24
34597 H 17.25444077289086 65.76013640214705 3.8032708794216887 H 0.0 **** 0.06
34598 H 16.511652892419875 64.68590555863943 2.5931081683115167 H 0.0 **** 0.06
34599 H 16.88375498522413 64.07096589597205 4.222327548342406 H 0.0 **** 0.06
34600 H 18.20509582432379 64.43626597510348 3.0863360168123393 H 0.0 **** 0.06
34601 C 134.8146523681487 156.44163121015458 43.17844115638103 C 0.0 **** -0.24
34602 H 135.43665136155659 157.03768972716605 42.510435778211985 H 0.0 **** 0.06
34603 H 133.84880015721905 156.92972504985244 43.30641607288966 H 0.0 **** 0.06
34604 H 135.3078588800887 156.34921329940573 44.146096544282685 H 0.0 **** 0.06
34605 H 134.66806221071874 155.45041100604868 42.74976702860994 H 0.0 **** 0.06
34606 C 191.4437907639461 171.47590249926574 60.27571616564245 C 0.0 **** -0.24
34607 H 190.62150693564428 171.55474424572827 60.98780253389076 H 0.0 **** 0.06
34608 H 192.33330803636403 171.1080158178482 60.788771845766576 H 0.0 **** 0.06
34609 H 191.64955436696775 172.4568220405086 59.84791146269353 H 0.0 **** 0.06
34610 H 191.1702297536164 170.78265505559193 59.48098601364873 H 0.0 **** 0.06
34611 C 143.47238505644975 108.84891008119732 49.296176015368005 C 0.0 **** -0.24
34612 H 143.07906496093298 107.85711919683973 49.520933313371856 H 0.0 **** 0.06
34613 H 143.749737544848 108.89852851239294 48.24248330667217 H 0.0 **** 0.06
34614 H 144.3500270288257 109.04021761464836 49.91294230820705 H 0.0 **** 0.06
34615 H 142.70983831529128 109.59771494291064 49.50734751052936 H 0.0 **** 0.06
34616 C 64.01541737374174 74.97042688152817 40.605583773096924 C 0.0 **** -0.24
34617 H 63.49348158317531 74.230830756042 39.99864038406787 H 0.0 **** 0.06
34618 H 64.58861865023823 74.46454322820024 41.38201515539896 H 0.0 **** 0.06
34619 H 63.28880585627235 75.63990777979384 41.06600500745736 H 0.0 **** 0.06
34620 H 64.68989023884967 75.54758197459716 39.97304758000112 H 0.0 **** 0.06
34621 C 42.197382713687915 25.190740365084423 84.87367983695344 C 0.0 **** -0.24
34622 H 42.75209584494658 26.128363679019316 84.89188767814358 H 0.0 **** 0.06
34623 H 41.74960005334495 25.051127211966985 83.88937218416095 H 0.0 **** 0.06
34624 H 41.41230685867589 25.218485344866366 85.6297822212199 H 0.0 **** 0.06
34625 H 42.87555157705532 24.363744794950122 85.08488591979983 H 0.0 **** 0.06
34626 C 67.00309608635419 82.3702307540351 36.03789022598011 C 0.0 **** -0.24
34627 H 67.22227672850606 83.39639260111605 36.33477979397912 H 0.0 **** 0.06
34628 H 67.30804125089935 82.21934197097278 35.00229198983567 H 0.0 **** 0.06
34629 H 65.93314484170725 82.18470879036556 36.13311953507451 H 0.0 **** 0.06
34630 H 67.55015288915143 81.68166850101144 36.68280850501938 H 0.0 **** 0.06
34631 C 120.2130323824934 89.01324499339549 116.78682932154217 C 0.0 **** -0.24
34632 H 120.56744551507134 89.952532015906 116.3631338086247 H 0.0 **** 0.06
34633 H 120.17456615171056 88.25419606611166 116.00618808873548 H 0.0 **** 0.06
34634 H 119.21652239783336 89.15700449612353 117.20435026288919 H 0.0 **** 0.06
34635 H 120.89394425579894 88.69128175940659 117.57450525182088 H 0.0 **** 0.06
34636 C 81.90886155432995 44.696142207861385 194.08531102632284 C 0.0 **** -0.24
34637 H 82.03253114652293 44.99568616329839 193.04434467503756 H 0.0 **** 0.06
34638 H 81.4891039855452 43.69056646155195 194.12678036146676 H 0.0 **** 0.06
34639 H 81.23638528581225 45.39230131714817 194.5858285880063 H 0.0 **** 0.06
34640 H 82.87807157126264 44.7058952206325 194.5835363722052 H 0.0 **** 0.06
34641 C 114.69262346345516 144.55228349610138 192.45615627864285 C 0.0 **** -0.24
34642 H 115.4661372616873 144.45261213364068 191.69435202778536 H 0.0 **** 0.06
34643 H 113.7279771349314 144.7121784989953 191.974464746671 H 0.0 **** 0.06
34644 H 114.92382487126483 145.4026640123381 193.09856860320062 H 0.0 **** 0.06
34645 H 114.65396055700239 143.64326275027733 193.05652129169079 H 0.0 **** 0.06
34646 C 88.71158837135914 37.78585407001333 121.1707569774612 C 0.0 **** -0.24
34647 H 88.42772573984394 38.0542725021576 120.15300394183942 H 0.0 **** 0.06
34648 H 88.98871394330439 38.68636195818837 121.71923273123565 H 0.0 **** 0.06
34649 H 89.56049121129288 37.10231463708499 121.14287318400224 H 0.0 **** 0.06
34650 H 87.87082390158449 37.30190667944552 121.666936072313 H 0.0 **** 0.06
34651 C 79.52597942226873 59.253837453154745 166.06941454022095 C 0.0 **** -0.24
34652 H 79.46487579700309 60.31709048293479 165.83950368291744 H 0.0 **** 0.06
34653 H 80.33335861409114 59.081312109213684 166.78140649137782 H 0.0 **** 0.06
34654 H 79.72369642879931 58.69519624813309 165.15397874491313 H 0.0 **** 0.06
34655 H 78.58234681207705 58.92144307582903 166.5014366991105 H 0.0 **** 0.06
34656 C 8.514065969265403 154.32544062468457 21.700135249845914 C 0.0 **** -0.24
34657 H 9.238136889047077 154.85265733114278 21.079051900153075 H 0.0 **** 0.06
34658 H 7.554714581316468 154.84194267398803 21.657132357069372 H 0.0 **** 0.06
34659 H 8.868411626510657 154.30350174088915 22.731090894091665 H 0.0 **** 0.06
34660 H 8.39534441732171 153.30554855706907 21.334413984096784 H 0.0 **** 0.06
34661 C 90.85537819008331 10.583823914860261 180.56350996785346 C 0.0 **** -0.24
34662 H 91.1344611642306 10.265377871810728 181.56802950424841 H 0.0 **** 0.06
34663 H 90.86679154736123 11.672587946459885 180.51175763884498 H 0.0 **** 0.06
34664 H 89.85481401902888 10.218324328971732 180.33190668593386 H 0.0 **** 0.06
34665 H 91.56737283303849 10.178486124254164 179.84376653343077 H 0.0 **** 0.06
34666 C 30.749314366461107 6.6060890117672955 146.0721236076684 C 0.0 **** -0.24
34667 H 31.1698264659087 7.1045987914077955 146.94506360575264 H 0.0 **** 0.06
34668 H 30.847995358697872 7.254872088245179 145.20116247869925 H 0.0 **** 0.06
34669 H 29.694781846221545 6.392063687064592 146.24827985427592 H 0.0 **** 0.06
34670 H 31.28404049862516 5.6735739208743325 145.89255400052127 H 0.0 **** 0.06
34671 C 49.743711147384616 130.8763585497064 134.00449109782863 C 0.0 **** -0.24
34672 H 49.408687529007736 130.03318269349293 134.6091367359279 H 0.0 **** 0.06
34673 H 50.21210836157351 131.62108562907497 134.6486427318115 H 0.0 **** 0.06
34674 H 48.88816100601112 131.32135998360909 133.49691514148924 H 0.0 **** 0.06
34675 H 50.46519185513303 130.52915401387034 133.2655261050897 H 0.0 **** 0.06
34676 C 135.54518966280412 185.4073455884532 19.505795955587672 C 0.0 **** -0.24
34677 H 134.53409315587083 185.71938441644704 19.24519032448316 H 0.0 **** 0.06
34678 H 135.6938652243104 185.516264424657 20.580569870687498 H 0.0 **** 0.06
34679 H 136.26554986330504 186.02882976126105 18.974253597825538 H 0.0 **** 0.06
34680 H 135.68691933318956 184.36397063306316 19.22331039083852 H 0.0 **** 0.06
34681 C 63.56315419125315 148.15797585658373 31.193219155390892 C 0.0 **** -0.24
34682 H 64.50916833867802 148.65779199789284 31.40530587230336 H 0.0 **** 0.06
34683 H 63.01313660695564 148.01331195205026 32.123311464264816 H 0.0 **** 0.06
34684 H 63.759757345472394 147.1897731414146 30.732409659850603 H 0.0 **** 0.06
34685 H 62.97360378266228 148.77166565110238 30.512391111221746 H 0.0 **** 0.06
34686 C 75.74901579932553 157.23594928130746 88.52322686062024 C 0.0 **** -0.24
34687 H 76.20031678703734 156.2607178199274 88.70889247870016 H 0.0 **** 0.06
34688 H 75.29489197109584 157.60715352330507 89.4419377186041 H 0.0 **** 0.06
34689 H 74.98321113638121 157.14018451288908 87.75279903588941 H 0.0 **** 0.06
34690 H 76.51697922915486 157.93306057117672 88.18810643313046 H 0.0 **** 0.06
34691 C 157.32946450087272 174.42287742861376 28.819200895148555 C 0.0 **** -0.24
34692 H 156.58242667170006 173.6727504839111 29.078875177233613 H 0.0 **** 0.06
34693 H 157.7983103620993 174.15622378227238 27.872233596745502 H 0.0 **** 0.06
34694 H 158.0883510405414 174.46443838679187 29.600404188117636 H 0.0 **** 0.06
34695 H 156.85030524746335 175.39705323425562 28.726888539679635 H 0.0 **** 0.06
34696 C 98.99223927383673 139.7081224507109 89.72848933404765 C 0.0 **** -0.24
34697 H 98.30689603003052 140.04756448061272 88.9507808639973 H 0.0 **** 0.06
34698 H 99.74252245430245 140.47748359552952 89.91262589815534 H 0.0 **** 0.06
34699 H 99.48402961217582 138.79150594059297 89.40333689041708 H 0.0 **** 0.06
34700 H 98.43477541999562 139.51725133514742 90.64461919188699 H 0.0 **** 0.06
34701 C 160.18152570958873 173.42435780070676 57.75744575684769 C 0.0 **** -0.24
34702 H 160.29465760172363 173.49500048367426 56.67553703922215 H 0.0 **** 0.06
34703 H 161.0989174333435 173.02470991327982 58.19232588317618 H 0.0 **** 0.06
34704 H 159.34821496385018 172.763365524317 57.9933420674048 H 0.0 **** 0.06
34705 H 159.98756474370674 174.41570342183135 58.16730999221954 H 0.0 **** 0.06
34706 C 66.47144659513299 180.5123384447333 79.16084822301028 C 0.0 **** -0.24
34707 H 65.51980202815417 180.48583819487013 78.6293474677845 H 0.0 **** 0.06
34708 H 66.29636602883977 180.76733763508685 80.20666891462895 H 0.0 **** 0.06
34709 H 67.11952323966841 181.26108454883814 78.70735116963596 H 0.0 **** 0.06
34710 H 66.94872006743572 179.5344050969972 79.10082260622292 H 0.0 **** 0.06
34711 C 96.77528088534723 185.83690088848618 170.76612089926783 C 0.0 **** -0.24
34712 H 96.31339057867928 186.21422537592275 169.85401112047086 H 0.0 **** 0.06
34713 H 97.86027800689942 185.86890724816726 170.66425563195733 H 0.0 **** 0.06
34714 H 96.45582357541787 184.8093114066363 170.93632531056727 H 0.0 **** 0.06
34715 H 96.47116772529483 186.45649532439984 171.6099180366854 H 0.0 **** 0.06
34716 C 156.30315935590733 130.51977482399508 131.6561987954888 C 0.0 **** -0.24
34717 H 157.025040049187 131.07975687280123 131.0625734675414 H 0.0 **** 0.06
34718 H 155.3217139634834 130.57879627006275 131.1855417060539 H 0.0 **** 0.06
34719 H 156.2519427749697 130.94332378984313 132.65939908692434 H 0.0 **** 0.06
34720 H 156.6152442081654 129.47700122656067 131.7183997882667 H 0.0 **** 0.06
34721 C 179.54751135253 85.82421137994626 82.70931125788942 C 0.0 **** -0.24
34722 H 178.65061381160103 85.61110539086829 83.29087408321644 H 0.0 **** 0.06
34723 H 179.29507885455436 85.84767816304415 81.64860260141484 H 0.0 **** 0.06
34724 H 180.2897319933216 85.0458195105887 82.88940935508532 H 0.0 **** 0.06
34725 H 179.95413105450413 86.79023182665813 83.00751183288082 H 0.0 **** 0.06
34726 C 189.0995247406862 171.1079989806669 169.33983557732125 C 0.0 **** -0.24
34727 H 188.98254332036606 172.04150763042227 168.79028338738362 H 0.0 **** 0.06
34728 H 189.50346818243736 171.31771974265672 170.3300651323552 H 0.0 **** 0.06
34729 H 189.7816220028884 170.45158824573502 168.79939690685654 H 0.0 **** 0.06
34730 H 188.12839506684753 170.6213804137846 169.43877618268533 H 0.0 **** 0.06
34731 C 117.05117940805383 149.1503887066441 57.85255482830442 C 0.0 **** -0.24
34732 H 116.02061050445707 149.07697693742927 58.199344564678086 H 0.0 **** 0.06
34733 H 117.06066354960242 149.39955246218491 56.79088859903213 H 0.0 **** 0.06
34734 H 117.55536518685074 148.19586824054366 58.006551849687 H 0.0 **** 0.06
34735 H 117.56902534903762 149.92886650583372 58.413571403675206 H 0.0 **** 0.06
34736 C 9.676832352429074 43.180189130700256 112.98143736797141 C 0.0 **** -0.24
34737 H 9.86198723722427 42.16488180543425 113.33223415832538 H 0.0 **** 0.06
34738 H 8.769664479462818 43.19592140226928 112.37848745381098 H 0.0 **** 0.06
34739 H 10.520970888534748 43.5151005849938 112.37837921262235 H 0.0 **** 0.06
34740 H 9.556684040847216 43.8435603138318 113.83820440080876 H 0.0 **** 0.06
34741 C 89.4681736117025 147.26392079116485 162.81317671660545 C 0.0 **** -0.24
34742 H 90.30393887293886 146.6805530509647 162.42831678755692 H 0.0 **** 0.06
34743 H 88.53608655079867 146.7295953041776 162.62828303023593 H 0.0 **** 0.06
34744 H 89.43856739267977 148.23089293379803 162.31026216587654 H 0.0 **** 0.06
34745 H 89.59391216011093 147.4156379792659 163.8844406236643 H 0.0 **** 0.06
34746 C 14.28342743925026 97.83417958850436 186.72853822635344 C 0.0 **** -0.24
34747 H 14.213525295931106 98.20552511392412 187.75116762316625 H 0.0 **** 0.06
34748 H 14.120558113449079 98.65710991013836 186.0314743957064 H 0.0 **** 0.06
34749 H 13.526491304178109 97.06610549523387 186.56855833621245 H 0.0 **** 0.06
34750 H 15.273503940403089 97.40883097094283 186.56401843815266 H 0.0 **** 0.06
34751 C 196.50280486266678 153.88520779141422 181.7903258800066 C 0.0 **** -0.24
34752 H 196.13057852155742 153.6184934708969 182.7795011454313 H 0.0 **** 0.06
34753 H 197.07476883639396 153.05276488834275 181.3812700235481 H 0.0 **** 0.06
34754 H 197.14278469770247 154.76364592533298 181.86801062633756 H 0.0 **** 0.06
34755 H 195.6609712281046 154.10609269054314 181.13322489817352 H 0.0 **** 0.06
34756 C 71.29413224336577 24.28423009631409 190.94587757253194 C 0.0 **** -0.24
34757 H 71.88961399897569 25.193052880669853 190.85897931106447 H 0.0 **** 0.06
34758 H 70.24277360268327 24.548057615803685 191.05539791836276 H 0.0 **** 0.06
34759 H 71.62078417470438 23.71872990844325 191.81891408276306 H 0.0 **** 0.06
34760 H 71.42624570092651 23.677830997679337 190.04991448959737 H 0.0 **** 0.06
34761 C 93.25348563213782 181.5722039497582 40.3709739417954 C 0.0 **** -0.24
34762 H 92.53728467344169 182.26220195500747 39.92322998326108 H 0.0 **** 0.06
34763 H 92.90022241407738 181.2741663851873 41.35876765423939 H 0.0 **** 0.06
34764 H 94.22155995839663 182.06359029968684 40.46346294870813 H 0.0 **** 0.06
34765 H 93.35203142539049 180.6905561376964 39.73827691514066 H 0.0 **** 0.06
34766 C 9.083279438758147 31.30479780341335 191.84206547531844 C 0.0 **** -0.24
34767 H 8.483484441872221 32.01105042858488 191.2680298730682 H 0.0 **** 0.06
34768 H 8.697634921839658 31.24524664342914 192.86059121479792 H 0.0 **** 0.06
34769 H 10.119698156681032 31.642621839797812 191.86525727506125 H 0.0 **** 0.06
34770 H 9.032194492354357 30.321709239828138 191.37577066280318 H 0.0 **** 0.06
34771 C 79.23034846195344 23.37576202370937 35.80090830753227 C 0.0 **** -0.24
34772 H 79.43406692242002 24.071945808662264 36.6143765641209 H 0.0 **** 0.06
34773 H 79.78700814219414 22.45262141850003 35.96474396605453 H 0.0 **** 0.06
34774 H 79.5372913619538 23.82361195836218 34.85555325112989 H 0.0 **** 0.06
34775 H 78.16276163645709 23.156951978518265 35.76972775163932 H 0.0 **** 0.06
34776 C 173.00365376668307 134.65317696160344 171.44521607810674 C 0.0 **** -0.24
34777 H 173.4125176580643 135.51859426964415 170.9227996696919 H 0.0 **** 0.06
34778 H 172.87429826628397 133.83095443525758 170.74081280390405 H 0.0 **** 0.06
34779 H 172.03985690171262 134.9137253648596 171.88133164863135 H 0.0 **** 0.06
34780 H 173.69017167784196 134.34958268117794 172.23600705462712 H 0.0 **** 0.06
34781 C 144.46886819146795 145.04243746817468 183.70441014934238 C 0.0 **** -0.24
34782 H 145.24959507084984 145.371326288155 183.01780007908587 H 0.0 **** 0.06
34783 H 144.9268309300409 144.63430432112767 184.60628440931131 H 0.0 **** 0.06
34784 H 143.86372643922587 144.27323489904344 183.22412007105706 H 0.0 **** 0.06
34785 H 143.83667331663386 145.88971347458227 183.96809494102627 H 0.0 **** 0.06
34786 C 178.02265137628908 142.08548525740818 68.3434896887639 C 0.0 **** -0.24
34787 H 178.95132181535428 141.81424234656242 67.84104646929529 H 0.0 **** 0.06
34788 H 178.16208819830817 143.0224618615872 68.88244042163274 H 0.0 **** 0.06
34789 H 177.74758647600447 141.29917409142726 69.04637355600704 H 0.0 **** 0.06
34790 H 177.23155998642545 142.2048915146577 67.60319161269325 H 0.0 **** 0.06
34791 C 74.19914068395309 103.21429255250405 13.198315498818829 C 0.0 **** -0.24
34792 H 73.18408123190974 102.8558653821189 13.029321596696605 H 0.0 **** 0.06
34793 H 74.18987140104035 104.3012573246385 13.286737073389588 H 0.0 **** 0.06
34794 H 74.8309652330153 102.92427371708916 12.358342574738487 H 0.0 **** 0.06
34795 H 74.59066997284775 102.77747813027668 14.116592495271618 H 0.0 **** 0.06
34796 C 23.38734954580849 136.28768684477996 192.19248568871936 C 0.0 **** -0.24
34797 H 22.804307839106343 135.36718791641613 192.17729489690632 H 0.0 **** 0.06
34798 H 22.829201048991166 137.07884291415803 191.6907397015937 H 0.0 **** 0.06
34799 H 24.33386846518431 136.1260540359143 191.67601258479058 H 0.0 **** 0.06
34800 H 23.581290828869612 136.57805909386445 193.224845320453 H 0.0 **** 0.06
34801 C 165.0168501336842 70.0432211071114 155.78423779770566 C 0.0 **** -0.24
34802 H 165.17268420449486 69.72570008027355 156.81578801264868 H 0.0 **** 0.06
34803 H 165.44062663102133 71.03793774446305 155.643685354976 H 0.0 **** 0.06
34804 H 163.94900854962856 70.06933984122026 155.5696712072421 H 0.0 **** 0.06
34805 H 165.5068106383869 69.34153236485375 155.10964141295028 H 0.0 **** 0.06
34806 C 157.21182489307145 64.90842478092456 120.54781202777576 C 0.0 **** -0.24
34807 H 156.73292077734112 64.29911400800633 121.31324450523479 H 0.0 **** 0.06
34808 H 156.51295118718733 65.0780798417612 119.72829180141036 H 0.0 **** 0.06
34809 H 158.0940880270091 64.39091236181952 120.17126543228366 H 0.0 **** 0.06
34810 H 157.50803753214404 65.86574082640878 120.97722529541852 H 0.0 **** 0.06
34811 C 120.33601519427862 132.94203951736205 37.680526818513215 C 0.0 **** -0.24
34812 H 119.94966784202512 132.53175738188577 36.74727766382668 H 0.0 **** 0.06
34813 H 119.62158018875576 132.7535926951358 38.48290524284255 H 0.0 **** 0.06
34814 H 120.48446490584715 134.01696062915937 37.57029523409443 H 0.0 **** 0.06
34815 H 121.28697181774626 132.46687985243625 37.92060902839245 H 0.0 **** 0.06
34816 C 7.378359103735505 94.57054692611291 18.638925292941167 C 0.0 **** -0.24
34817 H 8.401223347748356 94.19595665632116 18.62719838944787 H 0.0 **** 0.06
34818 H 6.884603970203955 94.24916432132704 19.555609947786024 H 0.0 **** 0.06
34819 H 6.838054986874681 94.1776454675954 17.77730379815611 H 0.0 **** 0.06
34820 H 7.38992964867046 95.6602874623299 18.59453608519881 H 0.0 **** 0.06
34821 C 162.7271132291696 195.59945589544122 191.7729469994497 C 0.0 **** -0.24
34822 H 163.11059143833032 196.07258290850405 192.6765287384198 H 0.0 **** 0.06
34823 H 161.7010457399991 195.92496277410322 191.60023199518318 H 0.0 **** 0.06
34824 H 162.75057402533122 194.51684145545715 191.89122723925146 H 0.0 **** 0.06
34825 H 163.34644959620107 195.88519562457236 190.92243540949457 H 0.0 **** 0.06
34826 C 177.3684009219988 54.83220671639242 150.48803994539043 C 0.0 **** -0.24
34827 H 177.559877554936 54.51246236047456 151.51329648419042 H 0.0 **** 0.06
34828 H 176.37339104694806 55.27260602032925 150.42554610854665 H 0.0 **** 0.06
34829 H 177.42767877666753 53.970729757652265 149.82276912019557 H 0.0 **** 0.06
34830 H 178.11336683622486 55.57067587169203 150.19318615582932 H 0.0 **** 0.06
34831 C 37.90180236806708 2.647944918137 46.53197158239942 C 0.0 **** -0.24
34832 H 37.506636668404155 1.6466751142933163 46.70474756946538 H 0.0 **** 0.06
34833 H 37.8292067681665 3.2304024667141675 47.451134676253105 H 0.0 **** 0.06
34834 H 37.325788331804006 3.1354109358879896 45.746286299382234 H 0.0 **** 0.06
34835 H 38.94632512851433 2.5784447847640877 46.22703120659429 H 0.0 **** 0.06
34836 C 128.1822079520345 68.27962967997576 100.72083335804447 C 0.0 **** -0.24
34837 H 129.25635700640086 68.41333930601945 100.84432506540739 H 0.0 **** 0.06
34838 H 127.73428654935336 69.21878294091363 100.39516747901894 H 0.0 **** 0.06
34839 H 127.74243128676108 67.97778202892545 101.67167518173054 H 0.0 **** 0.06
34840 H 127.99436633149233 67.50928835539293 99.97294803910856 H 0.0 **** 0.06
34841 C 104.34442722633116 164.46111123811997 96.08770843744722 C 0.0 **** -0.24
34842 H 103.74225022485666 164.58677237129723 95.18842605713789 H 0.0 **** 0.06
34843 H 105.31238684350978 164.03454840235702 95.81975496170455 H 0.0 **** 0.06
34844 H 103.83145321251891 163.79104417673904 96.77771675609182 H 0.0 **** 0.06
34845 H 104.49367943532707 165.43042470011108 96.56351709205288 H 0.0 **** 0.06
34846 C 167.61190299001032 160.4517339789785 125.87350031004911 C 0.0 **** -0.24
34847 H 168.3155738786103 160.43952463965078 126.70508245717497 H 0.0 **** 0.06
34848 H 167.6167145247018 161.4382598627866 125.40814104122046 H 0.0 **** 0.06
34849 H 166.61012731748008 160.22883796133465 126.24246857031858 H 0.0 **** 0.06
34850 H 167.90422291208213 159.70227872851282 125.13874555559755 H 0.0 **** 0.06
34851 C 100.14377543830327 79.98797029115076 109.47382921042976 C 0.0 **** -0.24
34852 H 99.64460493007505 80.93055605717228 109.69727394222511 H 0.0 **** 0.06
34853 H 99.40058763642278 79.24050136026912 109.19350296538343 H 0.0 **** 0.06
34854 H 100.68785179866885 79.64734406050431 110.35392939530499 H 0.0 **** 0.06
34855 H 100.84231000218574 80.13338997939508 108.64889933935657 H 0.0 **** 0.06
34856 C 89.02595400698976 84.52489917031485 62.85507575904968 C 0.0 **** -0.24
34857 H 90.0766342294852 84.80178597317743 62.93739486376194 H 0.0 **** 0.06
34858 H 88.9056442567832 83.79042022018035 62.0583719681476 H 0.0 **** 0.06
34859 H 88.43474335755445 85.41070111981475 62.6245209067621 H 0.0 **** 0.06
34860 H 88.6872538018863 84.09717934265814 63.79788250955664 H 0.0 **** 0.06
34861 C 27.584108144729214 40.72501264713432 104.8158049296924 C 0.0 **** -0.24
34862 H 27.80733560963739 40.05801331335543 105.64763907118493 H 0.0 **** 0.06
34863 H 27.870111565935673 41.743812571809244 105.08081149463027 H 0.0 **** 0.06
34864 H 26.51673845400387 40.691904524977616 104.59981545163399 H 0.0 **** 0.06
34865 H 28.142918055555015 40.4074467275606 103.93548336787492 H 0.0 **** 0.06
34866 C 186.17712073363907 130.9713149937674 44.20169981783354 C 0.0 **** -0.24
34867 H 186.50558921557274 131.99294325249812 44.392290573595346 H 0.0 **** 0.06
34868 H 185.688543464091 130.92144339794123 43.228509311249184 H 0.0 **** 0.06
34869 H 185.47451005651902 130.66477701538767 44.97716639056506 H 0.0 **** 0.06
34870 H 187.04005925190145 130.30528163332085 44.20996805624364 H 0.0 **** 0.06
34871 C 113.32987841841611 44.0375566920101 69.75125157252853 C 0.0 **** -0.24
34872 H 113.80982178558975 44.36668989208991 70.67238639597099 H 0.0 **** 0.06
34873 H 113.12449740837246 44.90207324557535 69.12028054082379 H 0.0 **** 0.06
34874 H 112.39446436843775 43.530634800155056 69.98969118452749 H 0.0 **** 0.06
34875 H 113.990265828985 43.34950583358655 69.2228330068449 H 0.0 **** 0.06
34876 C 191.31009270608263 118.08591183848802 66.54460238778461 C 0.0 **** -0.24
34877 H 190.77107848972133 117.21736387544337 66.16524924318647 H 0.0 **** 0.06
34878 H 190.69732421679586 118.59653433151618 67.28857763297063 H 0.0 **** 0.06
34879 H 191.52737454361454 118.76665765691064 65.72290939982037 H 0.0 **** 0.06
34880 H 192.2435671436214 117.76075881025889 67.00441286413513 H 0.0 **** 0.06
34881 C 149.62086253270633 173.32343251411407 115.53396407507572 C 0.0 **** -0.24
34882 H 150.6225093440249 173.7149282190376 115.36078374326021 H 0.0 **** 0.06
34883 H 149.51401582514683 172.36210142738793 115.03175296572334 H 0.0 **** 0.06
34884 H 148.8837424208967 174.02386034793463 115.13948529973439 H 0.0 **** 0.06
34885 H 149.46215341132657 173.19410791045277 116.6053618914161 H 0.0 **** 0.06
34886 C 140.8874205925165 94.68699633770007 46.51287169299232 C 0.0 **** -0.24
34887 H 141.8136982427867 94.3944709704814 46.01890378423691 H 0.0 **** 0.06
34888 H 140.04213408154976 94.46427486517683 45.86051398697711 H 0.0 **** 0.06
34889 H 140.91057035856863 95.75619145061268 46.72511823705702 H 0.0 **** 0.06
34890 H 140.78238556578322 94.13425378222041 47.4460865550071 H 0.0 **** 0.06
34891 C 193.29870323710344 26.88653687362958 198.11471565431106 C 0.0 **** -0.24
34892 H 192.59366237104007 27.71683992280667 198.13052313678992 H 0.0 **** 0.06
34893 H 192.96611325529642 26.142100553203193 197.3909241349062 H 0.0 **** 0.06
34894 H 193.34950886353974 26.434150088520752 199.10466547555654 H 0.0 **** 0.06
34895 H 194.28504548333515 27.2530561249215 197.8318742239885 H 0.0 **** 0.06
34896 C 24.54985714713169 193.70237079153452 135.62405987411023 C 0.0 **** -0.24
34897 H 24.28082118252793 194.7157601862166 135.92010419948394 H 0.0 **** 0.06
34898 H 24.069339486928783 192.98757915291586 136.292298139735 H 0.0 **** 0.06
34899 H 25.631842986609897 193.58255287281563 135.68166193653366 H 0.0 **** 0.06
34900 H 24.21913992406182 193.52281502894033 134.6009682194882 H 0.0 **** 0.06
34901 C 31.837088676066188 131.11254924462293 73.00003189019452 C 0.0 **** -0.24
34902 H 31.59826777044381 132.1657822241719 72.85186795338129 H 0.0 **** 0.06
34903 H 32.26595989996301 130.7046390524988 72.08471258447408 H 0.0 **** 0.06
34904 H 30.927600963680803 130.56628715722218 73.250470543912 H 0.0 **** 0.06
34905 H 32.55513825319153 131.01533475197573 73.81389232950947 H 0.0 **** 0.06
34906 C 138.8110889268126 93.60291757234475 123.07575490781244 C 0.0 **** -0.24
34907 H 138.26949120320035 93.91312038869123 123.96955007886245 H 0.0 **** 0.06
34908 H 138.10889700461252 93.18986507942341 122.35125105316172 H 0.0 **** 0.06
34909 H 139.54747618850277 92.84471460459156 123.34145536867072 H 0.0 **** 0.06
34910 H 139.3173140950309 94.46547036255109 122.64136629846405 H 0.0 **** 0.06
34911 C 134.87935482893587 13.641906450050413 68.96672684525079 C 0.0 **** -0.24
34912 H 133.82808656897154 13.603289083088157 68.68047793688544 H 0.0 **** 0.06
34913 H 135.28663017049257 12.632017456593644 68.99215640480918 H 0.0 **** 0.06
34914 H 134.9699458113042 14.095172218421794 69.9540849914045 H 0.0 **** 0.06
34915 H 135.4303397688643 14.239931404741014 68.24082503856958 H 0.0 **** 0.06
34916 C 16.765932033580953 189.5595252304359 181.40309341555994 C 0.0 **** -0.24
34917 H 16.821271578625044 189.55713720768787 182.49167943150985 H 0.0 **** 0.06
34918 H 15.725898206800224 189.6654442187692 181.0927379526849 H 0.0 **** 0.06
34919 H 17.16694636315475 188.62250691536565 181.01606644244708 H 0.0 **** 0.06
34920 H 17.348744269961742 190.3934256593045 181.0116133281636 H 0.0 **** 0.06
34921 C 197.83166447782116 181.00608024474323 164.59885520306682 C 0.0 **** -0.24
34922 H 197.20049982173222 180.9297142201451 165.48384451062407 H 0.0 **** 0.06
34923 H 197.80805696414455 180.06251134930804 164.05262893872873 H 0.0 **** 0.06
34924 H 198.85590589028283 181.2265941623521 164.89998446000692 H 0.0 **** 0.06
34925 H 197.46188318476237 181.80601280182788 163.95658781004596 H 0.0 **** 0.06
34926 C 72.18416432789314 124.0514282440432 183.04564720602554 C 0.0 **** -0.24
34927 H 71.93018320290054 125.09604486643218 182.86493088439568 H 0.0 **** 0.06
34928 H 72.57727834501463 123.6108276973219 182.12827200665535 H 0.0 **** 0.06
34929 H 71.29182474712309 123.50914522408394 183.3564443359562 H 0.0 **** 0.06
34930 H 72.93781787469982 123.99206165289635 183.83007795153495 H 0.0 **** 0.06
34931 C 126.49597197815797 63.40145093595089 173.71209999636912 C 0.0 **** -0.24
34932 H 125.60367469148571 62.85685214141955 174.02038133122346 H 0.0 **** 0.06
34933 H 126.5446031228289 64.35120548503136 174.2453241557079 H 0.0 **** 0.06
34934 H 126.45493012652031 63.588656010715226 172.63906248092928 H 0.0 **** 0.06
34935 H 127.38101000867636 62.80771492834094 173.94363390032802 H 0.0 **** 0.06
34936 C 186.39732616494163 194.34434650649246 54.52074121774422 C 0.0 **** -0.24
34937 H 187.2351035893453 193.65525856354697 54.41711466555148 H 0.0 **** 0.06
34938 H 185.65618047180467 193.91560111797583 55.19608643292432 H 0.0 **** 0.06
34939 H 185.94406265366547 194.51513550549697 53.543771407166275 H 0.0 **** 0.06
34940 H 186.75403073185998 195.29047730130213 54.9263925810867 H 0.0 **** 0.06
34941 C 103.74776321022367 157.3573547665636 81.05768315534019 C 0.0 **** -0.24
34942 H 103.37362767935306 156.60774755957146 81.75505416458239 H 0.0 **** 0.06
34943 H 103.24802301910984 157.23915385518154 80.09560363973418 H 0.0 **** 0.06
34944 H 104.8223945281236 157.2282709652205 80.92780401611327 H 0.0 **** 0.06
34945 H 103.54639133877723 158.35210465656152 81.45244974571128 H 0.0 **** 0.06
34946 C 146.65198396440863 137.7338916518196 2.984172527739105 C 0.0 **** -0.24
34947 H 147.49258181309222 138.4045112506199 2.807663945486013 H 0.0 **** 0.06
34948 H 146.8623299106611 137.10744672133765 3.8517715379401807 H 0.0 **** 0.06
34949 H 146.49969104180954 137.1039016776444 2.108803381230615 H 0.0 **** 0.06
34950 H 145.7525277308457 138.3208919312773 3.170438042857427 H 0.0 **** 0.06
34951 C 62.640861369712894 93.3656524213396 194.56040855707755 C 0.0 **** -0.24
34952 H 62.09170652742095 93.08024271907752 193.66359367864374 H 0.0 **** 0.06
34953 H 62.25262174675947 94.31109734468998 194.93861824018353 H 0.0 **** 0.06
34954 H 63.69820700723706 93.47763108333913 194.31832657414668 H 0.0 **** 0.06
34955 H 62.521661428876556 92.59355193966664 195.3204413855661 H 0.0 **** 0.06
34956 C 176.5502409628764 39.18472894953254 28.102062020621247 C 0.0 **** -0.24
34957 H 175.70681440304838 39.8116358486227 28.389516428813522 H 0.0 **** 0.06
34958 H 177.14018491374475 39.69700598876608 27.34114081467976 H 0.0 **** 0.06
34959 H 176.18133061145642 38.241026254105606 27.701175450660116 H 0.0 **** 0.06
34960 H 177.17330891279164 38.98974806127748 28.974900759925276 H 0.0 **** 0.06
34961 C 57.8204408443392 73.21164768470663 104.55327474701949 C 0.0 **** -0.24
34962 H 57.28526873917889 73.16815660470166 103.60445756972251 H 0.0 **** 0.06
34963 H 58.548470830620175 72.40029750191417 104.59634384299576 H 0.0 **** 0.06
34964 H 57.111075814323016 73.10856222890504 105.3749780664742 H 0.0 **** 0.06
34965 H 58.33675549940631 74.16747778426367 104.63606760456847 H 0.0 **** 0.06
34966 C 153.66329566777483 62.47406228044977 65.25783191790725 C 0.0 **** -0.24
34967 H 153.6987685155573 63.454410643795626 64.78160668952894 H 0.0 **** 0.06
34968 H 152.62372445059228 62.18121587493866 65.40911435764274 H 0.0 **** 0.06
34969 H 154.1715170104228 62.51967426786797 66.22133454316703 H 0.0 **** 0.06
34970 H 154.15873837329738 61.74222778888473 64.61968970140938 H 0.0 **** 0.06
34971 C 18.33443212478352 59.41458734176217 140.78441333385635 C 0.0 **** -0.24
34972 H 18.351228369161845 58.828586368708784 141.70376280220918 H 0.0 **** 0.06
34973 H 19.113722632739325 59.0562784092873 140.11122635253017 H 0.0 **** 0.06
34974 H 18.511980005073866 60.46366584775939 141.01937440160737 H 0.0 **** 0.06
34975 H 17.361619976999748 59.30934640879252 140.30433880907293 H 0.0 **** 0.06
34976 C 111.4960976881639 10.844137468417472 143.63041272867568 C 0.0 **** -0.24
34977 H 110.555246785071 10.418605512970394 143.2830040487075 H 0.0 **** 0.06
34978 H 111.45778363291225 10.97564148295529 144.71201266435014 H 0.0 **** 0.06
34979 H 111.65608753166083 11.811058637555249 143.15220105050196 H 0.0 **** 0.06
34980 H 112.31549529788978 10.172581867335431 143.37403153829518 H 0.0 **** 0.06
34981 C 178.4623216924465 94.87657925018954 143.74591679302753 C 0.0 **** -0.24
34982 H 178.71344870713307 95.40989825901059 142.82925833308207 H 0.0 **** 0.06
34983 H 179.36028902046755 94.412689358585 144.15348092145675 H 0.0 **** 0.06
34984 H 177.72222504396672 94.1070540271678 143.52704340902275 H 0.0 **** 0.06
34985 H 178.0528542737923 95.57764698125905 144.47297053560416 H 0.0 **** 0.06
34986 C 135.0674916775256 101.49834842563342 126.82449871976615 C 0.0 **** -0.24
34987 H 135.45069415515658 101.87487966478147 127.7732678087057 H 0.0 **** 0.06
34988 H 135.89559419245595 101.13476289803492 126.21693024684268 H 0.0 **** 0.06
34989 H 134.55310493293388 102.30125629414084 126.29661245356439 H 0.0 **** 0.06
34990 H 134.3688639071396 100.68271107714361 127.01401827446702 H 0.0 **** 0.06
34991 C 71.00882655757414 115.80411399271401 14.594750344300394 C 0.0 **** -0.24
34992 H 70.16162863097458 115.99127528391702 15.254761717510974 H 0.0 **** 0.06
34993 H 71.60736835531348 116.71143695926077 14.506867143224454 H 0.0 **** 0.06
34994 H 70.64544793839397 115.51046495246624 13.610589343509396 H 0.0 **** 0.06
34995 H 71.6211390297231 115.00259432345067 15.009858008118727 H 0.0 **** 0.06
34996 C 103.96414787649104 99.91606504526246 195.71149660464857 C 0.0 **** -0.24
34997 H 104.29534118906798 99.77016752491011 196.73950223616382 H 0.0 **** 0.06
34998 H 104.32021386344778 100.88086079656509 195.3489033410074 H 0.0 **** 0.06
34999 H 102.87557211840311 99.89109784600976 195.67259777095558 H 0.0 **** 0.06
35000 H 104.36817033967716 99.12153500864665 195.0838346251745 H 0.0 **** 0.06
35001 C 19.769662624407758 186.52805526111217 182.97004691501172 C 0.0 **** -0.24
35002 H 18.78612309683804 186.06047148709706 182.95886428345727 H 0.0 **** 0.06
35003 H 19.707782693416632 187.5147965440616 182.51127224923266 H 0.0 **** 0.06
35004 H 20.471754405559963 185.90982132200574 182.4095064287667 H 0.0 **** 0.06
35005 H 20.11458535817522 186.62671065640583 184.00001688262387 H 0.0 **** 0.06
35006 C 79.39379468971401 3.5981776858996 2.4732391954660784 C 0.0 **** -0.24
35007 H 79.69775825738941 3.613080483030217 3.519485686512212 H 0.0 **** 0.06
35008 H 78.32512100555095 3.8001765753570567 2.4025024810572404 H 0.0 **** 0.06
35009 H 79.60831070155376 2.618653610286117 2.0465892973149096 H 0.0 **** 0.06
35010 H 79.9452667383797 4.362327716460015 1.9245616817093492 H 0.0 **** 0.06
35011 C 54.61509948555482 79.24024114348262 61.518773358154135 C 0.0 **** -0.24
35012 H 55.28132264813769 80.04691243609517 61.824706041993466 H 0.0 **** 0.06
35013 H 54.85515715726791 78.33873857663376 62.08334765765713 H 0.0 **** 0.06
35014 H 54.743014958098 79.04806806554149 60.4540185514434 H 0.0 **** 0.06
35015 H 53.582468323444004 79.52854474931215 61.71498648935136 H 0.0 **** 0.06
35016 C 15.635460748441062 145.76194136192956 4.255667247740689 C 0.0 **** -0.24
35017 H 15.379743938453771 144.91271175823567 3.6217171837088316 H 0.0 **** 0.06
35018 H 14.739639560397961 146.1151008282955 4.76745772760696 H 0.0 **** 0.06
35019 H 16.042904341377493 146.56372122944862 3.6400322585782945 H 0.0 **** 0.06
35020 H 16.378159194600016 145.45530083140068 4.990974834150087 H 0.0 **** 0.06
35021 C 123.27484448301769 30.665278791315004 50.98681476756883 C 0.0 **** -0.24
35022 H 122.59169300455792 31.474590686003708 50.7283577979764 H 0.0 **** 0.06
35023 H 124.23477350268044 30.83017297345701 50.49674652357595 H 0.0 **** 0.06
35024 H 122.85474316353842 29.71629999763745 50.655516133692686 H 0.0 **** 0.06
35025 H 123.41676138763074 30.641958373529675 52.06725885745442 H 0.0 **** 0.06
35026 C 149.25750332937176 75.82913562408555 145.60183259611898 C 0.0 **** -0.24
35027 H 149.17480817830403 76.773011472117 145.0618199991548 H 0.0 **** 0.06
35028 H 150.30729972993396 75.61564437821161 145.80131360624583 H 0.0 **** 0.06
35029 H 148.83111151685102 75.02703935578558 144.99816852327245 H 0.0 **** 0.06
35030 H 148.71485833926369 75.90229562151649 146.54455987455938 H 0.0 **** 0.06
35031 C 134.26726861625562 113.09723131479211 52.65167314938479 C 0.0 **** -0.24
35032 H 134.18983618358556 114.11220700650836 52.262633005666515 H 0.0 **** 0.06
35033 H 133.9172044133657 113.07556280622396 53.68333501039554 H 0.0 **** 0.06
35034 H 135.30665066772025 112.77163146497753 52.612108433237026 H 0.0 **** 0.06
35035 H 133.65330199313223 112.4288481671054 52.04558099517871 H 0.0 **** 0.06
35036 C 121.14232623208773 8.42948011539405 136.51479731537538 C 0.0 **** -0.24
35037 H 120.4278111086104 8.72000143490341 137.28492794204163 H 0.0 **** 0.06
35038 H 120.667014502896 7.7375485345788775 135.82004619874206 H 0.0 **** 0.06
35039 H 122.00175498954638 7.946315661257017 136.9802831017227 H 0.0 **** 0.06
35040 H 121.47370577236893 9.316570376350825 135.97477402212735 H 0.0 **** 0.06
35041 C 101.11581983703459 21.522860628334513 61.338429422777665 C 0.0 **** -0.24
35042 H 101.55584342674533 22.414772450586497 61.78332401883654 H 0.0 **** 0.06
35043 H 100.23561372195826 21.228107413904183 61.90992607465722 H 0.0 **** 0.06
35044 H 101.84531644421651 20.71302801326766 61.35208664486794 H 0.0 **** 0.06
35045 H 100.82735964390889 21.735094649534915 60.308658995912964 H 0.0 **** 0.06
35046 C 171.67111711067162 4.513963014061936 37.75521217688873 C 0.0 **** -0.24
35047 H 171.04329707791004 4.427235068410624 36.86791348355746 H 0.0 **** 0.06
35048 H 172.32267987672844 3.643057190413458 37.82523850411033 H 0.0 **** 0.06
35049 H 171.03874896681748 4.568993226038408 38.64190824169481 H 0.0 **** 0.06
35050 H 172.27701226144643 5.417297641644886 37.684782788211294 H 0.0 **** 0.06
35051 C 3.5638154131848623 53.506459265307484 191.55484892665987 C 0.0 **** -0.24
35052 H 3.2352023937987724 53.6511561845561 190.5252028763887 H 0.0 **** 0.06
35053 H 3.5016516372779734 54.45265701094999 192.09218045247127 H 0.0 **** 0.06
35054 H 4.59460251709266 53.15205791554037 191.56044474191668 H 0.0 **** 0.06
35055 H 2.9236178857661272 52.769941059043305 192.0401660750244 H 0.0 **** 0.06
35056 C 172.1910289229749 153.10824014671203 22.752080966226856 C 0.0 **** -0.24
35057 H 173.11434304105558 153.15781147234352 23.328761460887677 H 0.0 **** 0.06
35058 H 172.14917415398946 153.94903409042843 22.059614788801014 H 0.0 **** 0.06
35059 H 171.3372188040289 153.14999655387663 23.428284606474335 H 0.0 **** 0.06
35060 H 172.1640617517699 152.17328810155703 22.190939127887873 H 0.0 **** 0.06
35061 C 93.80432615370455 52.6447356426645 94.40460836205278 C 0.0 **** -0.24
35062 H 94.02109112454434 53.712348671178745 94.35522136639077 H 0.0 **** 0.06
35063 H 94.4533187231174 52.17577239943819 95.14399648572345 H 0.0 **** 0.06
35064 H 93.9800480440768 52.193787616726695 93.42803354475848 H 0.0 **** 0.06
35065 H 92.76283346475671 52.498461832626276 94.69020182186006 H 0.0 **** 0.06
35066 C 185.85511407368801 74.9770987214228 181.93954107713694 C 0.0 **** -0.24
35067 H 185.55122615100004 75.01659724882374 182.98578372986907 H 0.0 **** 0.06
35068 H 185.34449612847618 74.15080136299233 181.44434749372462 H 0.0 **** 0.06
35069 H 186.93289719607446 74.82482558197422 181.88078635176487 H 0.0 **** 0.06
35070 H 185.59382561192035 75.91371227429178 181.44897912096243 H 0.0 **** 0.06
35071 C 86.11391406935601 37.47208601010702 193.33212836661062 C 0.0 **** -0.24
35072 H 87.18394010269054 37.53997824306131 193.13385927737704 H 0.0 **** 0.06
35073 H 85.75553025973258 36.48143125812538 193.0522500160262 H 0.0 **** 0.06
35074 H 85.58873867281622 38.22729653510058 192.74726722875457 H 0.0 **** 0.06
35075 H 85.92940324555806 37.63976782232855 194.39286595494258 H 0.0 **** 0.06
35076 C 87.02967490257794 75.75842619157586 79.15043834108488 C 0.0 **** -0.24
35077 H 87.83093041681389 75.29037093810125 79.72239337905026 H 0.0 **** 0.06
35078 H 87.10166097581092 75.45035894625072 78.10663553759036 H 0.0 **** 0.06
35079 H 87.12098720660649 76.84236598203614 79.21745526888873 H 0.0 **** 0.06
35080 H 86.06590326568434 75.44828790941459 79.5553039714921 H 0.0 **** 0.06
35081 C 55.877891148084586 50.82661579636891 186.7595155383905 C 0.0 **** -0.24
35082 H 55.69509985021767 50.49697924487245 187.7820211650834 H 0.0 **** 0.06
35083 H 56.756375360333095 51.47193492592271 186.73750635483572 H 0.0 **** 0.06
35084 H 55.011538646465425 51.37985922984282 186.39580996184083 H 0.0 **** 0.06
35085 H 56.04867430969318 49.958680863080474 186.12277482066258 H 0.0 **** 0.06
35086 C 76.41683086887706 174.6638490026324 185.55577666974284 C 0.0 **** -0.24
35087 H 76.80015453562548 174.1914464692934 186.46092556539514 H 0.0 **** 0.06
35088 H 76.27082949109395 173.90674347291178 184.78525444446834 H 0.0 **** 0.06
35089 H 77.1317368470666 175.4076632207247 185.20426631500868 H 0.0 **** 0.06
35090 H 75.4652036705797 175.1480989807767 185.7742585008101 H 0.0 **** 0.06
35091 C 53.808688566452815 56.268782039811015 8.743975424214604 C 0.0 **** -0.24
35092 H 53.004917489934144 56.8541329883804 8.298975451436952 H 0.0 **** 0.06
35093 H 54.66065802034848 56.91724144221041 8.948367537452256 H 0.0 **** 0.06
35094 H 54.10868855689628 55.4812594404155 8.052177868517646 H 0.0 **** 0.06
35095 H 53.46062751220671 55.821587601417036 9.675304221030274 H 0.0 **** 0.06
35096 C 196.69904459886175 44.44557721002977 132.3876452547313 C 0.0 **** -0.24
35097 H 195.97466808988605 43.78931283525196 132.87177897846266 H 0.0 **** 0.06
35098 H 196.88384488789558 45.3121270094194 133.02294124303748 H 0.0 **** 0.06
35099 H 196.3028260527455 44.77665243296737 131.42758184664336 H 0.0 **** 0.06
35100 H 197.63095257900306 43.903280304838944 132.22928725844756 H 0.0 **** 0.06
35101 C 148.29375067183014 187.6255943400629 180.0088297768922 C 0.0 **** -0.24
35102 H 147.351795655621 187.7676902224922 179.48021917921614 H 0.0 **** 0.06
35103 H 148.69064011250566 188.59459855863773 180.31170315175984 H 0.0 **** 0.06
35104 H 149.00837912345497 187.12889413263738 179.35167242324758 H 0.0 **** 0.06
35105 H 148.124096182602 187.0095318237941 180.8922011737241 H 0.0 **** 0.06
35106 C 130.5570735206897 109.46246197137955 5.541759841881259 C 0.0 **** -0.24
35107 H 131.34978331688043 109.31445855305992 6.275633036639164 H 0.0 **** 0.06
35108 H 129.88993311143514 108.60070745959666 5.550620487320202 H 0.0 **** 0.06
35109 H 130.99669630190897 109.57098875816777 4.549734916803175 H 0.0 **** 0.06
35110 H 129.99459808757285 110.36140371918074 5.790435865844671 H 0.0 **** 0.06
35111 C 132.85876252279172 136.6253560649355 193.1805644044344 C 0.0 **** -0.24
35112 H 133.0274822041696 136.24227757871682 192.17436948547737 H 0.0 **** 0.06
35113 H 132.28353256481972 137.54932803219015 193.12625998609653 H 0.0 **** 0.06
35114 H 133.81891395603913 136.82231705203503 193.6591282056495 H 0.0 **** 0.06
35115 H 132.30811242974005 135.88728387142504 193.76257949391095 H 0.0 **** 0.06
35116 C 137.30343728566493 125.84313969509734 71.50054685590378 C 0.0 **** -0.24
35117 H 137.95010525327154 125.01922973537023 71.80175872875355 H 0.0 **** 0.06
35118 H 137.07715274684801 126.46246665520155 72.3693973264924 H 0.0 **** 0.06
35119 H 136.37738902623792 125.44557625330145 71.08621293762239 H 0.0 **** 0.06
35120 H 137.81010619387038 126.44522031149563 70.74681532918879 H 0.0 **** 0.06
35121 C 186.53631234923074 110.29312955659123 100.46188826773616 C 0.0 **** -0.24
35122 H 187.0364139743133 110.65180624214045 101.36167773644138 H 0.0 **** 0.06
35123 H 185.63910774893674 109.73988200293343 100.74153582624751 H 0.0 **** 0.06
35124 H 187.20921421761653 109.63832480613536 99.9088670371944 H 0.0 **** 0.06
35125 H 186.26023467637134 111.14217364738045 99.8368187304921 H 0.0 **** 0.06
35126 C 23.629006675314372 17.070081585879592 160.7844510910973 C 0.0 **** -0.24
35127 H 23.379779593693513 16.027143909830414 160.97787169357156 H 0.0 **** 0.06
35128 H 24.549159771609226 17.32738241003412 161.30825375363563 H 0.0 **** 0.06
35129 H 22.81873879765061 17.708244244319815 161.13762254955816 H 0.0 **** 0.06
35130 H 23.766376822422785 17.21691553391679 159.71321819677485 H 0.0 **** 0.06
35131 C 198.83550619855936 123.70095906762788 90.23826245945457 C 0.0 **** -0.24
35132 H 199.11567561983253 123.36507638757803 91.23563879718645 H 0.0 **** 0.06
35133 H 199.73479223736206 123.8664207227448 89.64376538286274 H 0.0 **** 0.06
35134 H 198.27191729006134 124.63040768380836 90.31254887249051 H 0.0 **** 0.06
35135 H 198.21870533822516 122.93939221468133 89.7591785947362 H 0.0 **** 0.06
35136 C 0.46056543897426394 119.0406338131846 91.62220583556822 C 0.0 **** -0.24
35137 H 0.40950652190966963 119.41680244384798 92.64437257765235 H 0.0 **** 0.06
35138 H -0.11242439493621958 118.1159344462746 91.54648638363923 H 0.0 **** 0.06
35139 H 1.4994369407245784 118.84761449076109 91.35743386914933 H 0.0 **** 0.06
35140 H 0.04342718299096049 119.78427489649985 90.94165580705945 H 0.0 **** 0.06
35141 C 29.5757802078341 51.389357403741315 129.21639161988216 C 0.0 **** -0.24
35142 H 30.503351151155954 51.57582410623894 129.75637862614448 H 0.0 **** 0.06
35143 H 29.28825322145741 52.286792082686645 128.66829407431868 H 0.0 **** 0.06
35144 H 28.78857738411844 51.12731167356418 129.92399140262108 H 0.0 **** 0.06
35145 H 29.722222236862933 50.56780459805685 128.51535496148497 H 0.0 **** 0.06
35146 C 85.67450004276287 116.48982270979957 129.21455628493044 C 0.0 **** -0.24
35147 H 85.713493207694 115.80486832938857 128.3680471627185 H 0.0 **** 0.06
35148 H 86.18321414287578 116.04059572441054 130.06845955685634 H 0.0 **** 0.06
35149 H 84.63468760982016 116.68842250291198 129.474338712351 H 0.0 **** 0.06
35150 H 86.16795371432062 117.42469508643711 128.94820350612918 H 0.0 **** 0.06
35151 C 172.4173580777879 35.71471588105699 198.39877816334226 C 0.0 **** -0.24
35152 H 172.1065463375712 34.71466474045344 198.70056526334326 H 0.0 **** 0.06
35153 H 172.5059078143097 36.34884755486067 199.28169813550505 H 0.0 **** 0.06
35154 H 171.67490559846945 36.13663485013534 197.72136367968108 H 0.0 **** 0.06
35155 H 173.3809768085136 35.658407478860596 197.89365445415044 H 0.0 **** 0.06
35156 C 16.976876321013577 143.65636814645347 168.98139032100562 C 0.0 **** -0.24
35157 H 17.120883854606674 142.5976165310661 169.1942130298584 H 0.0 **** 0.06
35158 H 15.910356747395454 143.88404153042094 168.98478705176893 H 0.0 **** 0.06
35159 H 17.395477516669743 143.89117758968095 168.00278506598465 H 0.0 **** 0.06
35160 H 17.477861249655604 144.25202065748056 169.74401988662422 H 0.0 **** 0.06
35161 C 21.090322833472896 23.533915907054023 62.43595977029838 C 0.0 **** -0.24
35162 H 20.77259481132657 23.77895695776533 63.449113488261276 H 0.0 **** 0.06
35163 H 22.18006097953321 23.52547280870614 62.38890441498006 H 0.0 **** 0.06
35164 H 20.701597698715887 24.280843694459833 61.74300136168523 H 0.0 **** 0.06
35165 H 20.70703784431609 22.550390167284817 62.16281981626685 H 0.0 **** 0.06
35166 C 72.69597475173002 158.35520348113263 47.701001816265716 C 0.0 **** -0.24
35167 H 71.75766567983162 158.4085658710893 48.25310255248219 H 0.0 **** 0.06
35168 H 73.52840118475135 158.31324307155694 48.403208504637036 H 0.0 **** 0.06
35169 H 72.79696369168097 159.23744040112814 47.06957176091308 H 0.0 **** 0.06
35170 H 72.70042172958492 157.46074923418604 47.078492783659144 H 0.0 **** 0.06
35171 C 95.86187529632844 90.32576528061 150.1114311894769 C 0.0 **** -0.24
35172 H 95.8843230008988 90.4963889937375 151.1876943210159 H 0.0 **** 0.06
35173 H 94.98943788780014 89.7219830606548 149.85858990645838 H 0.0 **** 0.06
35174 H 96.76658065989065 89.80058108640245 149.80826719274344 H 0.0 **** 0.06
35175 H 95.80503335920488 91.2821691610406 149.59248487676322 H 0.0 **** 0.06
35176 C 64.01325131106094 7.6152827302041715 77.66995456198846 C 0.0 **** -0.24
35177 H 64.81721301966353 8.280311435089764 77.9856634138849 H 0.0 **** 0.06
35178 H 64.00320010865201 6.728589236469126 78.30474455040464 H 0.0 **** 0.06
35179 H 64.17308764059938 7.318868517570522 76.633028018805 H 0.0 **** 0.06
35180 H 63.05839214063117 8.134782868437789 77.75506196567318 H 0.0 **** 0.06
35181 C 181.2947090148704 144.72177067494175 54.964476698109365 C 0.0 **** -0.24
35182 H 180.6200517267717 144.84005211664964 55.81273475984841 H 0.0 **** 0.06
35183 H 182.16392482486552 145.36541656125434 55.10015106432567 H 0.0 **** 0.06
35184 H 180.77594086538286 144.99901502687666 54.04703522875815 H 0.0 **** 0.06
35185 H 181.61713579381512 143.6821178224525 54.899595103788954 H 0.0 **** 0.06
35186 C 78.51496927938865 87.61322788031714 59.14257534126003 C 0.0 **** -0.24
35187 H 78.40889698850359 88.2686152565731 60.00826569231664 H 0.0 **** 0.06
35188 H 79.35243932045054 86.9337664673057 59.30142685761329 H 0.0 **** 0.06
35189 H 78.69723129681776 88.21479731839253 58.25200560617439 H 0.0 **** 0.06
35190 H 77.59861920227313 87.03757214891294 59.01014532772601 H 0.0 **** 0.06
35191 C 165.13957736044262 59.84425905137337 22.62498255069498 C 0.0 **** -0.24
35192 H 164.7800879774622 59.440088453803014 23.570841512267364 H 0.0 **** 0.06
35193 H 166.14170270993637 60.2515541005659 22.761067896257146 H 0.0 **** 0.06
35194 H 164.46784142365473 60.63451733445049 22.289375093429797 H 0.0 **** 0.06
35195 H 165.16867733071712 59.05087631667408 21.878645700825544 H 0.0 **** 0.06
35196 C 12.240450693447087 165.8505033471403 122.28901673024427 C 0.0 **** -0.24
35197 H 12.518962879832827 166.71001195896025 121.680340656575 H 0.0 **** 0.06
35198 H 13.138603776555982 165.30181780561725 122.57512323201811 H 0.0 **** 0.06
35199 H 11.582938099646569 165.1966912396263 121.71481499772659 H 0.0 **** 0.06
35200 H 11.721124745145673 166.1916512333519 123.1841817129961 H 0.0 **** 0.06
35201 C 141.88892364251097 74.34134655987839 31.596188602502423 C 0.0 **** -0.24
35202 H 141.63331734642054 73.42505305738564 32.12776485107037 H 0.0 **** 0.06
35203 H 142.95735093133484 74.3516946296055 31.383278518405064 H 0.0 **** 0.06
35204 H 141.6323395814831 75.2027327857785 32.21362693328135 H 0.0 **** 0.06
35205 H 141.3314243520682 74.38553517525997 30.66060290933882 H 0.0 **** 0.06
35206 C 180.0678872474117 121.07167557257961 76.27157326065219 C 0.0 **** -0.24
35207 H 179.5512882470342 120.16829074214931 76.5952783671519 H 0.0 **** 0.06
35208 H 179.54269383467118 121.50436860715098 75.4196787167442 H 0.0 **** 0.06
35209 H 181.08843597098456 120.82116802726645 75.98111505968718 H 0.0 **** 0.06
35210 H 180.08943149450377 121.79044639262506 77.09011098997897 H 0.0 **** 0.06
35211 C 72.84380522667199 4.225611647083724 162.60571035519348 C 0.0 **** -0.24
35212 H 73.42260069697961 4.744659472141564 163.36946937047048 H 0.0 **** 0.06
35213 H 71.86171439708282 3.9722857149376125 163.0043157304847 H 0.0 **** 0.06
35214 H 73.36396262418697 3.313139644101284 162.31342484636326 H 0.0 **** 0.06
35215 H 72.72817504494914 4.873051342695788 161.7357154052846 H 0.0 **** 0.06
35216 C 132.4754613960224 60.57293382581224 59.462074360809424 C 0.0 **** -0.24
35217 H 132.41128626794807 59.51439673386113 59.20838068882901 H 0.0 **** 0.06
35218 H 133.28930926288325 61.03271633543261 58.9016581141031 H 0.0 **** 0.06
35219 H 132.66364237923028 60.67895530073736 60.52991471476298 H 0.0 **** 0.06
35220 H 131.53550576555494 61.06386168086425 59.20777540320876 H 0.0 **** 0.06
35221 C 34.92456788277302 135.88454279967587 35.78724061793308 C 0.0 **** -0.24
35222 H 35.457048927876485 135.11316323836863 35.231516607314106 H 0.0 **** 0.06
35223 H 35.26117770455849 135.88181385232141 36.82454678745732 H 0.0 **** 0.06
35224 H 33.853953502065764 135.6857668421388 35.75137105796365 H 0.0 **** 0.06
35225 H 35.12812959304401 136.85821644046345 35.341055719545295 H 0.0 **** 0.06
35226 C 94.400663351248 75.13752520370076 84.58915426890269 C 0.0 **** -0.24
35227 H 94.73134323984937 74.44025178011385 85.35962703896064 H 0.0 **** 0.06
35228 H 95.22748654467568 75.79225841742901 84.31353222366249 H 0.0 **** 0.06
35229 H 93.57435898806483 75.73552639758294 84.97149746647278 H 0.0 **** 0.06
35230 H 94.07040786273967 74.57945453558959 83.71310054827052 H 0.0 **** 0.06
35231 C 57.90132734328546 89.5021732002366 10.590572840147047 C 0.0 **** -0.24
35232 H 57.715894119380096 90.44824899994151 10.081916979463756 H 0.0 **** 0.06
35233 H 57.53830564492509 88.6803054806719 9.972598404668588 H 0.0 **** 0.06
35234 H 57.37919274071356 89.49651626698875 11.547832552922614 H 0.0 **** 0.06
35235 H 58.97174832088692 89.38448723652556 10.759471119067484 H 0.0 **** 0.06
35236 C 19.24198495273299 54.26912697997159 64.63265548289473 C 0.0 **** -0.24
35237 H 20.115172747151064 54.475601552653416 65.25296028457856 H 0.0 **** 0.06
35238 H 18.992877207220488 53.209202581370505 64.69743446905665 H 0.0 **** 0.06
35239 H 19.461756063921314 54.52877448870271 63.598274286500555 H 0.0 **** 0.06
35240 H 18.398129581581088 54.86291837723104 64.98569457096644 H 0.0 **** 0.06
35241 C 157.6704446247162 25.184558452709467 69.02762768266717 C 0.0 **** -0.24
35242 H 158.48258884425877 25.33528004603164 69.73930771262161 H 0.0 **** 0.06
35243 H 157.7914731296408 24.219000251565177 68.53665605272977 H 0.0 **** 0.06
35244 H 157.69113804079655 25.97833172555032 68.28075924657867 H 0.0 **** 0.06
35245 H 156.7166110585523 25.207544442974296 69.55609044106723 H 0.0 **** 0.06
35246 C 117.6123519268483 11.600035791553665 137.98567510080247 C 0.0 **** -0.24
35247 H 117.87073862575679 11.277579404340315 136.97716438259215 H 0.0 **** 0.06
35248 H 116.55507673901957 11.408444861464517 138.16851046968293 H 0.0 **** 0.06
35249 H 117.81239163103771 12.666325828446844 138.08802910691028 H 0.0 **** 0.06
35250 H 118.21333576762893 11.047364367953435 138.7084886481793 H 0.0 **** 0.06
35251 C 71.35516132416313 155.0177379549593 100.68064393289788 C 0.0 **** -0.24
35252 H 71.6462946469365 154.2777129844265 101.42649051648021 H 0.0 **** 0.06
35253 H 71.83679930936773 154.7857053608177 99.73088111848446 H 0.0 **** 0.06
35254 H 71.66538901843472 156.00922659228542 101.01304095204023 H 0.0 **** 0.06
35255 H 70.27223085137001 154.99986844107676 100.5537621899293 H 0.0 **** 0.06
35256 C 89.60752739372825 45.970686414816385 110.58449145650405 C 0.0 **** -0.24
35257 H 90.5514100929839 45.42650162151571 110.55378248718603 H 0.0 **** 0.06
35258 H 89.29917511526989 46.21948386805991 109.56877427437138 H 0.0 **** 0.06
35259 H 89.73529988431852 46.88775444499066 111.16045770732114 H 0.0 **** 0.06
35260 H 88.84471303997452 45.350315447680714 111.054736926766 H 0.0 **** 0.06
35261 C 15.487538604714217 163.46128977293313 53.68325064988184 C 0.0 **** -0.24
35262 H 14.972203309249139 164.28307103794234 54.179793451618934 H 0.0 **** 0.06
35263 H 14.775562654118403 162.8994631904271 53.0769538053699 H 0.0 **** 0.06
35264 H 15.926037564631272 162.80154058645178 54.432831455363214 H 0.0 **** 0.06
35265 H 16.275971687528056 163.85895217904772 53.04398108697569 H 0.0 **** 0.06
35266 C 198.59140835123156 159.47275072414962 177.5715649953641 C 0.0 **** -0.24
35267 H 199.09762279720098 158.77314827709608 178.23724889097232 H 0.0 **** 0.06
35268 H 197.81963552462656 160.00795772750314 178.1264261401273 H 0.0 **** 0.06
35269 H 198.1327532939551 158.92361322953295 176.7490820234445 H 0.0 **** 0.06
35270 H 199.3143719209492 160.18508900926355 177.17492093301462 H 0.0 **** 0.06
35271 C 161.4906176752549 155.7533130870438 181.8256533892377 C 0.0 **** -0.24
35272 H 161.7173050634154 156.75179703541357 182.19973134812753 H 0.0 **** 0.06
35273 H 161.3571467038098 155.0716725269805 182.6661647493063 H 0.0 **** 0.06
35274 H 162.31422176022716 155.40346565237144 181.20229892215582 H 0.0 **** 0.06
35275 H 160.5759865090539 155.785219503929 181.23437217626778 H 0.0 **** 0.06
35276 C 175.3045979586758 31.323238409054156 48.47765838738772 C 0.0 **** -0.24
35277 H 175.6446657771727 32.34815415773977 48.328781684298704 H 0.0 **** 0.06
35278 H 175.5581023507893 30.999512571965766 49.487551355068064 H 0.0 **** 0.06
35279 H 175.79134626301374 30.669626477655427 47.75288308259947 H 0.0 **** 0.06
35280 H 174.22447102072658 31.274921845934088 48.340771637502684 H 0.0 **** 0.06
35281 C 15.056194325982986 1.2958188658094514 22.269825479234186 C 0.0 **** -0.24
35282 H 15.0696622930341 1.4491057126420515 21.191101964177847 H 0.0 **** 0.06
35283 H 15.659744831171636 0.4228390637714483 22.52088874477073 H 0.0 **** 0.06
35284 H 14.029898225183473 1.1352045187608155 22.60034330342296 H 0.0 **** 0.06
35285 H 15.464792002638362 2.1753930192000155 22.766981312349657 H 0.0 **** 0.06
35286 C 25.254144894922476 107.1658097823094 158.76097430010367 C 0.0 **** -0.24
35287 H 24.388648008199624 106.55574815971477 159.0212638651713 H 0.0 **** 0.06
35288 H 26.07056508016572 106.5194503945776 158.43784380162577 H 0.0 **** 0.06
35289 H 25.56798396935777 107.74187916665986 159.63190816604748 H 0.0 **** 0.06
35290 H 24.988155343908517 107.84693710986542 157.9519367057672 H 0.0 **** 0.06
35291 C 114.37850554405972 1.6935064835870435 133.41863938934466 C 0.0 **** -0.24
35292 H 113.64428663345802 1.18195284918977 134.04098266456424 H 0.0 **** 0.06
35293 H 115.28240209868108 1.8764371158462083 134.00005842423934 H 0.0 **** 0.06
35294 H 113.96673252398233 2.6427341781510236 133.07725188920654 H 0.0 **** 0.06
35295 H 114.61992087962307 1.0716686604723904 132.5561342840739 H 0.0 **** 0.06
35296 C 133.36576418292574 107.57413308889096 122.03367528235663 C 0.0 **** -0.24
35297 H 133.97646439835185 107.83114257314222 121.16751070271675 H 0.0 **** 0.06
35298 H 132.40322743893594 107.1877279157602 121.6971403491176 H 0.0 **** 0.06
35299 H 133.2079268108365 108.46424058556627 122.64278503698768 H 0.0 **** 0.06
35300 H 133.87650221164128 106.81445730149511 122.62559339432562 H 0.0 **** 0.06
35301 C 141.9285532530045 60.02728301406391 147.49220400425352 C 0.0 **** -0.24
35302 H 141.130316452096 59.681971230499045 148.14963649185918 H 0.0 **** 0.06
35303 H 142.89362458599973 59.84088729769013 147.96479438774358 H 0.0 **** 0.06
35304 H 141.8126153268192 61.09580595367785 147.31146164151613 H 0.0 **** 0.06
35305 H 141.87681134931404 59.49139979290355 146.54477188664714 H 0.0 **** 0.06
35306 C 189.49671197500516 35.483750620548506 62.74320100839793 C 0.0 **** -0.24
35307 H 188.4401570453604 35.462294663199884 62.47903634127897 H 0.0 **** 0.06
35308 H 189.78414806652995 34.52340443167776 63.17300376064473 H 0.0 **** 0.06
35309 H 189.67327529062123 36.27505100454522 63.470934994693536 H 0.0 **** 0.06
35310 H 190.0909875427676 35.673586938231324 61.84856452566605 H 0.0 **** 0.06
35311 C 77.57170511282337 1.2777918653681581 166.52333598338714 C 0.0 **** -0.24
35312 H 77.40215485951349 0.9129307751172888 167.53611669400968 H 0.0 **** 0.06
35313 H 76.61346329103897 1.4923929393569324 166.05028876446073 H 0.0 **** 0.06
35314 H 78.10033289435609 0.5179552896447888 165.94824667147213 H 0.0 **** 0.06
35315 H 78.17100685607755 2.1877470683332447 166.56113336999397 H 0.0 **** 0.06
35316 C 150.15951749717405 150.94652405498934 62.38222779988233 C 0.0 **** -0.24
35317 H 150.24713396939296 151.0517552438298 63.46341068194995 H 0.0 **** 0.06
35318 H 150.63830930843443 150.01875895153555 62.068218234424364 H 0.0 **** 0.06
35319 H 150.64838565367108 151.79106201809148 61.894929871276986 H 0.0 **** 0.06
35320 H 149.10665172601216 150.926252611254 62.10278479040032 H 0.0 **** 0.06
35321 C 45.2492290801585 9.083473125208833 54.91691669373566 C 0.0 **** -0.24
35322 H 44.74364248402907 8.442619365139635 54.194551595744144 H 0.0 **** 0.06
35323 H 45.92127954030201 9.761987920554269 54.392187698800456 H 0.0 **** 0.06
35324 H 45.82292386468447 8.467150382246466 55.609318498672394 H 0.0 **** 0.06
35325 H 44.50854503112461 9.659827356961237 55.47097681178255 H 0.0 **** 0.06
35326 C 17.216727515195444 135.72961326505964 45.46539183482474 C 0.0 **** -0.24
35327 H 17.956813091573025 135.6804886596843 44.66721217066389 H 0.0 **** 0.06
35328 H 16.880631908662096 134.72219910503273 45.7117008777621 H 0.0 **** 0.06
35329 H 16.365964204177175 136.3260979798005 45.136401789253284 H 0.0 **** 0.06
35330 H 17.66367335951317 136.18988344369663 46.34721351825864 H 0.0 **** 0.06
35331 C 137.5722460925989 94.2782100362156 100.48337705202843 C 0.0 **** -0.24
35332 H 136.53193274040103 93.95782326753681 100.43820953162628 H 0.0 **** 0.06
35333 H 138.22056346326806 93.40238910331561 100.53551154934163 H 0.0 **** 0.06
35334 H 137.72379081423264 94.89626746484254 101.36910495848014 H 0.0 **** 0.06
35335 H 137.8136399561432 94.85710909326085 99.59142437077776 H 0.0 **** 0.06
35336 C 13.404710152204906 110.69981345855373 143.87990345550972 C 0.0 **** -0.24
35337 H 13.781325734476113 110.01794370020116 144.64272848841395 H 0.0 **** 0.06
35338 H 13.419608516575586 111.7198991759856 144.26436523656452 H 0.0 **** 0.06
35339 H 12.382477794401318 110.42449851081756 143.61977584164282 H 0.0 **** 0.06
35340 H 14.034864464217982 110.6356192566843 142.99264682007254 H 0.0 **** 0.06
35341 C 50.104898310454544 86.48242891378766 90.13354143342428 C 0.0 **** -0.24
35342 H 50.04750672695204 86.11986799697809 89.10698384610771 H 0.0 **** 0.06
35343 H 51.077242308121726 86.94646248727327 90.30048360020083 H 0.0 **** 0.06
35344 H 49.97685459198087 85.6473521496448 90.8218373534022 H 0.0 **** 0.06
35345 H 49.31747999334233 87.21812343881368 90.30302501095719 H 0.0 **** 0.06
35346 C 164.52620647986723 141.18598843095688 90.5105330276067 C 0.0 **** -0.24
35347 H 164.46381054808083 140.92069536202854 91.56561406901392 H 0.0 **** 0.06
35348 H 163.73680521471542 140.67323249952534 89.96018613870751 H 0.0 **** 0.06
35349 H 165.49801577757745 140.88630842257297 90.1167446460048 H 0.0 **** 0.06
35350 H 164.40538520703657 142.2636164008868 90.40016609463544 H 0.0 **** 0.06
35351 C 21.95882051901043 89.11639757292772 90.84244515189741 C 0.0 **** -0.24
35352 H 22.795624857852147 89.8149282070807 90.8428136710624 H 0.0 **** 0.06
35353 H 21.753903131690407 88.79607332558123 89.82080728627727 H 0.0 **** 0.06
35354 H 21.076904641662452 89.60739649837174 91.25411021917495 H 0.0 **** 0.06
35355 H 22.2098742876218 88.24909230558885 91.45263221292359 H 0.0 **** 0.06
35356 C 157.7219943216485 115.86831058007493 77.404379887797 C 0.0 **** -0.24
35357 H 157.93014987536245 116.58864620584384 78.19604051718494 H 0.0 **** 0.06
35358 H 158.6618363897017 115.46927281448228 77.02171495633559 H 0.0 **** 0.06
35359 H 157.18014377504377 116.36168408680354 76.59742062456905 H 0.0 **** 0.06
35360 H 157.11795048816805 115.05373065667783 77.80359570794974 H 0.0 **** 0.06
35361 C 64.45337184195535 29.269092451780807 13.215278078849337 C 0.0 **** -0.24
35362 H 63.48759928275126 28.7803865585405 13.342008444230999 H 0.0 **** 0.06
35363 H 65.16510467066331 28.562111642988953 12.787936039698565 H 0.0 **** 0.06
35364 H 64.81815652240755 29.61106152881763 14.184207377315403 H 0.0 **** 0.06
35365 H 64.34347125855533 30.123060843795827 12.546486974863 H 0.0 **** 0.06
35366 C 92.58696841997761 14.373572574445944 143.83035288721806 C 0.0 **** -0.24
35367 H 92.43942619575625 13.321373847117755 143.5874870648032 H 0.0 **** 0.06
35368 H 92.33134753032735 14.543911008022803 144.87677655301425 H 0.0 **** 0.06
35369 H 91.94767187086023 14.986088522846515 143.195546782483 H 0.0 **** 0.06
35370 H 93.62985860684651 14.641480501643471 143.6632599011639 H 0.0 **** 0.06
35371 C 121.82619303096936 75.59370151536052 131.90116846058947 C 0.0 **** -0.24
35372 H 121.60366432336974 75.49643384825629 132.96380652655523 H 0.0 **** 0.06
35373 H 122.65783689327836 76.28575854517806 131.76634913661746 H 0.0 **** 0.06
35374 H 120.94847498892685 75.9749781691961 131.37972927460362 H 0.0 **** 0.06
35375 H 122.09424141805414 74.61846105808047 131.496207018194 H 0.0 **** 0.06
35376 C 114.69602740996382 75.55350777293097 154.3730283040868 C 0.0 **** -0.24
35377 H 114.32794830390125 75.97383964997908 153.4375105057565 H 0.0 **** 0.06
35378 H 114.27042196546088 76.1047443980317 155.21238633366593 H 0.0 **** 0.06
35379 H 115.78327107118096 75.62930259963514 154.4022868180244 H 0.0 **** 0.06
35380 H 114.4036828375094 74.50547403043993 154.44096662561537 H 0.0 **** 0.06
35381 C 33.421807574966465 63.30524359695595 118.6795955584588 C 0.0 **** -0.24
35382 H 32.412131775055684 63.660903451814235 118.47141161454249 H 0.0 **** 0.06
35383 H 33.37243033783736 62.30066863791269 119.10005331941983 H 0.0 **** 0.06
35384 H 33.90199493114579 63.974797286457786 119.39304327033443 H 0.0 **** 0.06
35385 H 33.99834236359814 63.285299930039585 117.7553177063611 H 0.0 **** 0.06
35386 C 3.080685197043316 61.48455285265669 7.394701217227066 C 0.0 **** -0.24
35387 H 3.4139762814984422 60.52524149583144 6.997725809469472 H 0.0 **** 0.06
35388 H 3.255433725231974 62.26387348012656 6.65210238852768 H 0.0 **** 0.06
35389 H 3.639004656817349 61.71619577148755 8.301782042123108 H 0.0 **** 0.06
35390 H 2.0170664644899077 61.43275011618795 7.6248562203445545 H 0.0 **** 0.06
35391 C 149.67484814802614 189.37928693200706 2.996810517893323 C 0.0 **** -0.24
35392 H 150.37716415642114 189.86817913975906 2.3213704212816424 H 0.0 **** 0.06
35393 H 148.65677821859396 189.54372300607724 2.642322010749325 H 0.0 **** 0.06
35394 H 149.78311310395125 189.79649373498904 3.99741875360084 H 0.0 **** 0.06
35395 H 149.88235785054468 188.30967834016496 3.023863440142293 H 0.0 **** 0.06
35396 C 55.40347942703269 172.13037168434096 119.60031585065877 C 0.0 **** -0.24
35397 H 55.53893136870437 172.29473854368757 118.53145805689269 H 0.0 **** 0.06
35398 H 54.64191062491125 172.81193846670473 119.97849484397804 H 0.0 **** 0.06
35399 H 56.3450614150874 172.31298769114224 120.11792229433345 H 0.0 **** 0.06
35400 H 55.08850322708119 171.10122385467923 119.77220365169367 H 0.0 **** 0.06
35401 C 43.50868938287175 107.10910655245664 102.13758290823299 C 0.0 **** -0.24
35402 H 43.403619744993705 106.02638297417167 102.06057166490291 H 0.0 **** 0.06
35403 H 44.13734949660682 107.47197352493095 101.32540086586727 H 0.0 **** 0.06
35404 H 43.96809638763119 107.36144627470838 103.09420487577867 H 0.0 **** 0.06
35405 H 42.52540369650757 107.57456089968832 102.0720681371125 H 0.0 **** 0.06
35406 C 157.99343252332378 179.42746171044087 4.736783245817577 C 0.0 **** -0.24
35407 H 158.60359818846658 178.81839119376292 5.4036075444677465 H 0.0 **** 0.06
35408 H 157.52969551109823 178.7897189181365 3.9838285261957935 H 0.0 **** 0.06
35409 H 158.62224872106034 180.17137527929407 4.245940593475325 H 0.0 **** 0.06
35410 H 157.21822496015557 179.9313405240955 5.313556203435866 H 0.0 **** 0.06
35411 C 16.042076748506076 84.05670931407809 75.17976677130517 C 0.0 **** -0.24
35412 H 17.091261511478024 84.08980347923188 75.47057040954532 H 0.0 **** 0.06
35413 H 15.827892938188256 84.88098650915836 74.499455751243 H 0.0 **** 0.06
35414 H 15.41567133571499 84.14666806380015 76.06751131482486 H 0.0 **** 0.06
35415 H 15.832782941144842 83.11007854450935 74.68168247275017 H 0.0 **** 0.06
35416 C 65.48660549003296 34.48015719801782 70.47922101702139 C 0.0 **** -0.24
35417 H 64.4297705494811 34.24107753063629 70.59365651381279 H 0.0 **** 0.06
35418 H 65.61199107795892 35.19281901690789 69.66312157361648 H 0.0 **** 0.06
35419 H 66.04308564655676 33.570407946963655 70.25582495873184 H 0.0 **** 0.06
35420 H 65.8627525284216 34.91759391379952 71.40430977971926 H 0.0 **** 0.06
35421 C 24.31678361855316 182.23723896560773 149.7352089897055 C 0.0 **** -0.24
35422 H 24.975508908034087 182.19795789421352 148.8675370024897 H 0.0 **** 0.06
35423 H 23.905669234758946 181.2454053094703 149.92414721180802 H 0.0 **** 0.06
35424 H 23.504043020738322 182.9374356965265 149.54293851804022 H 0.0 **** 0.06
35425 H 24.883237133301407 182.5677217027952 150.60645423714112 H 0.0 **** 0.06
35426 C 194.5573834387932 145.5868444542622 57.22049956538088 C 0.0 **** -0.24
35427 H 193.6324228774559 145.17789510419735 57.62781772640736 H 0.0 **** 0.06
35428 H 194.3891381594045 146.6158593100281 56.900686081872664 H 0.0 **** 0.06
35429 H 194.87400712037868 144.9869264624153 56.36740430352965 H 0.0 **** 0.06
35430 H 195.33256124008355 145.5660682585107 57.98688551312165 H 0.0 **** 0.06
35431 C 44.67837037727094 157.20368153652046 64.7773670217548 C 0.0 **** -0.24
35432 H 45.40527181593583 157.90836405292518 64.3756351534222 H 0.0 **** 0.06
35433 H 43.77920380146372 157.21811753885342 64.16133394199477 H 0.0 **** 0.06
35434 H 44.42406925164914 157.48689930479293 65.7989845264915 H 0.0 **** 0.06
35435 H 45.104327805223335 156.19961448562853 64.77431062026199 H 0.0 **** 0.06
35436 C 187.95766672554674 139.03915889954516 126.9551176209498 C 0.0 **** -0.24
35437 H 188.0018383447514 138.4641662262126 127.87930642500248 H 0.0 **** 0.06
35438 H 187.56756484167911 138.41019421834585 126.1539661589 H 0.0 **** 0.06
35439 H 188.9580668013705 139.382784250975 126.69291926435275 H 0.0 **** 0.06
35440 H 187.30316377730938 139.89989522482014 127.09292384081863 H 0.0 **** 0.06
35441 C 198.83642731284675 100.67760432515365 178.6351839961027 C 0.0 **** -0.24
35442 H 197.94514601495007 101.10069686117976 178.17276749854412 H 0.0 **** 0.06
35443 H 199.72471637897456 101.10670725448523 178.17085662434047 H 0.0 **** 0.06
35444 H 198.83932960879426 99.59684257569143 178.49496526854958 H 0.0 **** 0.06
35445 H 198.83677609041058 100.9055122214682 179.70092202378578 H 0.0 **** 0.06
35446 C 68.05452079060106 157.34056637154342 98.35160062238265 C 0.0 **** -0.24
35447 H 67.05982229790993 157.12367517586435 98.741841335679 H 0.0 **** 0.06
35448 H 68.00506057522057 158.20291839181502 97.68797171407391 H 0.0 **** 0.06
35449 H 68.42417254551154 156.47708274394716 97.79870977992073 H 0.0 **** 0.06
35450 H 68.72987199124032 157.55649877539122 99.18009724722418 H 0.0 **** 0.06
35451 C 54.90216438162312 119.86171192497403 63.73974682555024 C 0.0 **** -0.24
35452 H 55.1214667409771 118.7986569454439 63.63964552626044 H 0.0 **** 0.06
35453 H 55.69848790444655 120.4415519091288 63.27148498127622 H 0.0 **** 0.06
35454 H 54.83646851838802 120.12111997290359 64.79628939259862 H 0.0 **** 0.06
35455 H 53.95449366713922 120.08487741881927 63.250871549823216 H 0.0 **** 0.06
35456 C 161.88119064734593 111.11553243126747 196.8274462775916 C 0.0 **** -0.24
35457 H 160.95573918253288 110.55032493234688 196.71759296950222 H 0.0 **** 0.06
35458 H 162.27382922934606 110.97759411688739 197.8351390180829 H 0.0 **** 0.06
35459 H 161.68280551420915 112.17445395026874 196.65703714447164 H 0.0 **** 0.06
35460 H 162.61106960774066 110.76152806465325 196.0996658949378 H 0.0 **** 0.06
35461 C 160.12463990879246 65.66572524958531 69.4206364495306 C 0.0 **** -0.24
35462 H 161.04824300403996 66.18570778826734 69.1660875018033 H 0.0 **** 0.06
35463 H 160.0895307147664 65.49426496248691 70.49601795142152 H 0.0 **** 0.06
35464 H 160.0911433902889 64.70910083834826 68.89781388527757 H 0.0 **** 0.06
35465 H 159.27146310510352 66.2735471170858 69.12005602298888 H 0.0 **** 0.06
35466 C 116.77620678546984 64.44881413026633 102.52359784608967 C 0.0 **** -0.24
35467 H 116.61647766848492 63.52751492254076 101.96405156012526 H 0.0 **** 0.06
35468 H 117.58812391482329 64.3050102392248 103.23578228607744 H 0.0 **** 0.06
35469 H 115.86310939994291 64.70966747509253 103.05941908169348 H 0.0 **** 0.06
35470 H 117.03478311021425 65.25185519069413 101.83409149990956 H 0.0 **** 0.06
35471 C 66.46104344228186 170.96054740145922 100.5847666383545 C 0.0 **** -0.24
35472 H 66.89490074595584 170.21436477635103 99.91859396734583 H 0.0 **** 0.06
35473 H 67.21531334226854 171.2913385337919 101.29914667703872 H 0.0 **** 0.06
35474 H 65.61867489853682 170.52279594674576 101.12106655299584 H 0.0 **** 0.06
35475 H 66.11549671613179 171.81240912810716 99.99969935561887 H 0.0 **** 0.06
35476 C 61.852575709968164 192.77460800018454 145.0836324371716 C 0.0 **** -0.24
35477 H 62.752483690317945 192.192261269448 144.8850056484636 H 0.0 **** 0.06
35478 H 61.00879544906854 192.09998606286766 145.23069639750852 H 0.0 **** 0.06
35479 H 61.650862039658165 193.43016130928044 144.2371780018935 H 0.0 **** 0.06
35480 H 61.999653252198954 193.37436406851867 145.98150131654694 H 0.0 **** 0.06
35481 C 183.7338714423637 106.4645327607829 103.51417075980481 C 0.0 **** -0.24
35482 H 182.98461945781105 106.35387509766397 102.72982642019304 H 0.0 **** 0.06
35483 H 183.54834147060404 105.73225684989421 104.29990500281235 H 0.0 **** 0.06
35484 H 183.6761962266427 107.46939573945318 103.93208419321897 H 0.0 **** 0.06
35485 H 184.72621503085588 106.30304447801285 103.0924606326104 H 0.0 **** 0.06
35486 C 163.69290131609426 65.32350093798482 97.27233707870406 C 0.0 **** -0.24
35487 H 164.47752224393645 66.04003816647668 97.51531667033552 H 0.0 **** 0.06
35488 H 163.24609235906325 65.58589049022908 96.31335211432076 H 0.0 **** 0.06
35489 H 162.92803673997884 65.34460902104126 98.0488815524055 H 0.0 **** 0.06
35490 H 164.12210119608798 64.32272873415991 97.21087837415266 H 0.0 **** 0.06
35491 C 137.01842114983742 144.52200467042417 83.33194949580238 C 0.0 **** -0.24
35492 H 136.9282875035719 145.55188500287784 82.9838961259916 H 0.0 **** 0.06
35493 H 136.37246044401397 143.8790454954165 82.73485241127659 H 0.0 **** 0.06
35494 H 136.71946438428066 144.46576887883435 84.3795114795441 H 0.0 **** 0.06
35495 H 138.05344386267964 144.19400089980996 83.23148949859274 H 0.0 **** 0.06
35496 C 95.28480622017756 179.40794687167522 127.95015775982796 C 0.0 **** -0.24
35497 H 95.00094711840498 179.94649517294658 127.04605078712564 H 0.0 **** 0.06
35498 H 94.40231340260024 178.93741425173698 128.38545099067872 H 0.0 **** 0.06
35499 H 95.71673944651698 180.10521270839945 128.66844303444972 H 0.0 **** 0.06
35500 H 96.01887614702096 178.64138197560072 127.70116721173483 H 0.0 **** 0.06
35501 C 191.50335717390936 187.6957069360384 11.073483586753696 C 0.0 **** -0.24
35502 H 191.24322567725588 187.87214224362697 12.116985795764428 H 0.0 **** 0.06
35503 H 192.35047614613728 187.01117493103902 11.021820448847706 H 0.0 **** 0.06
35504 H 191.77113866134238 188.6410177809654 10.6020218673778 H 0.0 **** 0.06
35505 H 190.65007942951726 187.25942196552302 10.554812994188516 H 0.0 **** 0.06
35506 C 12.47672193958104 170.50060913328343 98.64069845121148 C 0.0 **** -0.24
35507 H 11.598528304875572 170.4679767219037 99.28531596721575 H 0.0 **** 0.06
35508 H 13.377894017399456 170.44680153137415 99.25162996417365 H 0.0 **** 0.06
35509 H 12.477182748135874 171.43284627833998 98.07475551901209 H 0.0 **** 0.06
35510 H 12.453086235941726 169.65692545198493 97.95179580438693 H 0.0 **** 0.06
35511 C 148.040441054322 78.24116665414721 106.2418232288783 C 0.0 **** -0.24
35512 H 149.0709387420668 78.04664116333115 105.94432695170829 H 0.0 **** 0.06
35513 H 147.86468938654266 79.3168752927686 106.25837505447666 H 0.0 **** 0.06
35514 H 147.86581330703532 77.82878526876138 107.23546170447915 H 0.0 **** 0.06
35515 H 147.3620367913324 77.77226398609577 105.52935735762483 H 0.0 **** 0.06
35516 C 82.94885708359962 168.51019746227954 60.96068686424624 C 0.0 **** -0.24
35517 H 83.52407969590877 169.06611491133305 61.70104111548358 H 0.0 **** 0.06
35518 H 83.40669830769193 168.63186428227579 59.978411288670515 H 0.0 **** 0.06
35519 H 81.92669118758144 168.8898044851393 60.93487787892215 H 0.0 **** 0.06
35520 H 82.93795914321626 167.45300617037006 61.22841717390864 H 0.0 **** 0.06
35521 C 39.297502553890695 97.1710504516883 46.72202402534896 C 0.0 **** -0.24
35522 H 38.44305811089666 96.52981882574974 46.50440649604775 H 0.0 **** 0.06
35523 H 40.18984005314485 96.75740134508649 46.25279074171851 H 0.0 **** 0.06
35524 H 39.44513845784877 97.22533666390984 47.801242427071884 H 0.0 **** 0.06
35525 H 39.110075794002285 98.170700799717 46.33036847811684 H 0.0 **** 0.06
35526 C 163.80534582310804 99.4497093865732 186.68744165664904 C 0.0 **** -0.24
35527 H 163.14437377306103 99.60957048631508 185.8355237836272 H 0.0 **** 0.06
35528 H 163.52814965681046 100.12780014168095 187.49520828000988 H 0.0 **** 0.06
35529 H 164.83566922837494 99.64205095756586 186.38825261542507 H 0.0 **** 0.06
35530 H 163.71193779696713 98.41883283403149 187.030481272644 H 0.0 **** 0.06
35531 C 46.523598718366216 17.896853507136825 82.66399603876852 C 0.0 **** -0.24
35532 H 47.25200415112781 18.703395508619522 82.58579637001992 H 0.0 **** 0.06
35533 H 46.39967163890806 17.620283066807175 83.71147757736284 H 0.0 **** 0.06
35534 H 46.875536979382105 17.033691737686695 82.09878996285974 H 0.0 **** 0.06
35535 H 45.56809126727005 18.230707914272955 82.26077599325805 H 0.0 **** 0.06
35536 C 34.75654840782332 6.319255349677775 147.46216071144926 C 0.0 **** -0.24
35537 H 34.16665782749895 6.276652028822099 148.3782812075596 H 0.0 **** 0.06
35538 H 35.781652008290905 6.014567939412132 147.67636366209712 H 0.0 **** 0.06
35539 H 34.75304957956848 7.338585599852223 147.07602306420512 H 0.0 **** 0.06
35540 H 34.323778801758564 5.647372568105652 146.72095178117073 H 0.0 **** 0.06
35541 C 112.79775671123707 168.54200702443885 10.727921909177098 C 0.0 **** -0.24
35542 H 112.35074289326673 169.32848485992912 10.119430368903657 H 0.0 **** 0.06
35543 H 113.88331662538445 168.64538302314764 10.71544058154825 H 0.0 **** 0.06
35544 H 112.52076029326551 167.56886107296128 10.324392987178527 H 0.0 **** 0.06
35545 H 112.43651572467903 168.62654133619236 11.75302511872124 H 0.0 **** 0.06
35546 C 197.35384449167424 99.13356318532863 140.987974406987 C 0.0 **** -0.24
35547 H 198.13126855870206 98.66861638766483 140.38068534488264 H 0.0 **** 0.06
35548 H 196.46780669918286 98.49736668875082 140.99109970030656 H 0.0 **** 0.06
35549 H 197.1016331807698 100.1074881615753 140.57083386069917 H 0.0 **** 0.06
35550 H 197.7156197065687 99.25655265096418 142.00881571103537 H 0.0 **** 0.06
35551 C 172.54546929370488 108.75066527370291 160.18824327059394 C 0.0 **** -0.24
35552 H 171.8852964340393 107.8965735653361 160.04193263786414 H 0.0 **** 0.06
35553 H 171.94957843553732 109.64085551546464 160.39297511929192 H 0.0 **** 0.06
35554 H 173.1384915399632 108.90952512079247 159.28745758486582 H 0.0 **** 0.06
35555 H 173.2097990470556 108.55625761549936 161.0308002975364 H 0.0 **** 0.06
35556 C 147.94658251489625 44.84881284533844 148.24666960174713 C 0.0 **** -0.24
35557 H 147.01132729531867 45.28860839646842 147.90294123482983 H 0.0 **** 0.06
35558 H 147.8592006989732 44.587852450866365 149.30213860116498 H 0.0 **** 0.06
35559 H 148.75531620115208 45.567401580834144 148.11487153827866 H 0.0 **** 0.06
35560 H 148.1596741474757 43.950243372407726 147.66689675004457 H 0.0 **** 0.06
35561 C 0.5567018024596848 135.25933429872032 91.04602735672654 C 0.0 **** -0.24
35562 H 0.4651929403861459 134.1865382624842 91.21783390445398 H 0.0 **** 0.06
35563 H -0.4374981595051395 135.6985603171801 90.95331995376145 H 0.0 **** 0.06
35564 H 1.11738867143697 135.43288149261352 90.12763403948108 H 0.0 **** 0.06
35565 H 1.0802502150095563 135.7183517249778 91.88364284586223 H 0.0 **** 0.06
35566 C 134.71385026148758 107.36159918965643 142.24479145410768 C 0.0 **** -0.24
35567 H 134.05926022010897 106.67289078818794 142.77972632529261 H 0.0 **** 0.06
35568 H 135.75290612947342 107.12505136650725 142.4731830156634 H 0.0 **** 0.06
35569 H 134.49601912070952 108.38393959480405 142.55410905284086 H 0.0 **** 0.06
35570 H 134.54501528497494 107.26222840668808 141.17311199921426 H 0.0 **** 0.06
35571 C 155.21398017067582 109.37079422567845 141.8077058428375 C 0.0 **** -0.24
35572 H 154.19421465341935 108.98734419975821 141.81035634051426 H 0.0 **** 0.06
35573 H 155.24583647583572 110.31313110717898 141.26045720793405 H 0.0 **** 0.06
35574 H 155.87245285405615 108.64829133485483 141.326449195168 H 0.0 **** 0.06
35575 H 155.54201131572393 109.53621870550205 142.8344292787832 H 0.0 **** 0.06
35576 C 193.01255885963084 96.17693368731312 136.0209953938819 C 0.0 **** -0.24
35577 H 192.20500472380283 95.64675791000894 136.52753234427297 H 0.0 **** 0.06
35578 H 192.60612389744986 97.03847351155198 135.4915547197377 H 0.0 **** 0.06
35579 H 193.49529793297756 95.5066950487967 135.30976418187348 H 0.0 **** 0.06
35580 H 193.74297246183409 96.51330531349583 136.7571392595739 H 0.0 **** 0.06
35581 C 151.24119063158605 144.38275949202463 59.38591826291389 C 0.0 **** -0.24
35582 H 151.6454785369371 145.3879400418141 59.265622632535155 H 0.0 **** 0.06
35583 H 150.18779862032574 144.44620004356963 59.66266236081643 H 0.0 **** 0.06
35584 H 151.79130046771246 143.8601487362857 60.16801789456491 H 0.0 **** 0.06
35585 H 151.33772217843904 143.83822312287924 58.44649690332807 H 0.0 **** 0.06
35586 C 20.936490006031363 75.00791713764208 195.74741014951417 C 0.0 **** -0.24
35587 H 20.563908489889116 75.92979050597373 196.19313783820166 H 0.0 **** 0.06
35588 H 20.821024885350766 75.05507269806819 194.66471728706898 H 0.0 **** 0.06
35589 H 20.37119553292206 74.16161497766603 196.13711578890644 H 0.0 **** 0.06
35590 H 21.991494410961792 74.88555816820795 195.9961182284844 H 0.0 **** 0.06
35591 C 20.766246233954234 135.81419502676738 53.66491357587941 C 0.0 **** -0.24
35592 H 19.709114523662876 135.92568178597384 53.90650607729384 H 0.0 **** 0.06
35593 H 21.005008681028997 136.41810951933286 52.78909711313915 H 0.0 **** 0.06
35594 H 20.98036891871189 134.76669913978435 53.45435358332256 H 0.0 **** 0.06
35595 H 21.36888812584202 136.14566356831602 54.51112339645232 H 0.0 **** 0.06
35596 C 38.45455532046623 20.712571845202405 30.624519602300154 C 0.0 **** -0.24
35597 H 37.491414767834954 20.99722333152893 30.20218742689741 H 0.0 **** 0.06
35598 H 38.58982312969198 19.635631159981187 30.526437726573533 H 0.0 **** 0.06
35599 H 38.48594927873728 20.989105990231664 31.678703164381943 H 0.0 **** 0.06
35600 H 39.25171775306964 21.228936828081842 30.088972255808784 H 0.0 **** 0.06
35601 C 153.49180583750984 137.25710823403253 190.54683059860037 C 0.0 **** -0.24
35602 H 153.2676026019435 138.21950221699942 191.00617948495307 H 0.0 **** 0.06
35603 H 154.1212998055675 137.41073968383068 189.67043148823188 H 0.0 **** 0.06
35604 H 152.56286642586304 136.7727866841256 190.2470091972706 H 0.0 **** 0.06
35605 H 154.01594633601286 136.62599846917934 191.26488762715104 H 0.0 **** 0.06
35606 C 161.60674428018143 186.41075107553044 50.84293789551157 C 0.0 **** -0.24
35607 H 160.84842754623307 185.6895661724003 51.14766686835199 H 0.0 **** 0.06
35608 H 162.03043215019733 186.88875347621803 51.72643491648543 H 0.0 **** 0.06
35609 H 161.1526840566384 187.16696939806218 50.20303881632353 H 0.0 **** 0.06
35610 H 162.39639198348593 185.8969552039875 50.2939014594173 H 0.0 **** 0.06
35611 C 65.1178105203025 140.07287473950709 21.591717359776823 C 0.0 **** -0.24
35612 H 64.77723194078621 140.96718365565334 21.070267010119096 H 0.0 **** 0.06
35613 H 64.50641821852889 139.91545104207785 22.479877199110888 H 0.0 **** 0.06
35614 H 66.16076890715544 140.19824073597414 21.884462771060612 H 0.0 **** 0.06
35615 H 65.02822466862438 139.21053287668383 20.930255650631295 H 0.0 **** 0.06
35616 C 33.654730052087075 59.02321926557636 9.700101531853846 C 0.0 **** -0.24
35617 H 33.34848456850648 59.570997233821686 8.808767874690872 H 0.0 **** 0.06
35618 H 34.68431029448618 58.68555711707643 9.581976690445572 H 0.0 **** 0.06
35619 H 33.00206646644776 58.16128542447791 9.838188377628128 H 0.0 **** 0.06
35620 H 33.58247250339889 59.67693394026122 10.569774269281048 H 0.0 **** 0.06
35621 C 135.27015095953323 16.934486319834264 125.94678581384622 C 0.0 **** -0.24
35622 H 135.72887675929053 17.92289226388408 125.97324355686064 H 0.0 **** 0.06
35623 H 135.01196703582025 16.680610510296617 124.91848244118475 H 0.0 **** 0.06
35624 H 134.36849832167877 16.93610591987212 126.5589676268684 H 0.0 **** 0.06
35625 H 135.97316898528078 16.197656325505307 126.33782793399621 H 0.0 **** 0.06
35626 C 139.41738977774716 36.884501312276626 195.44347713322264 C 0.0 **** -0.24
35627 H 139.19641760393793 37.401217547143006 194.50952461133815 H 0.0 **** 0.06
35628 H 138.67040976697035 36.10987999812541 195.6155275765364 H 0.0 **** 0.06
35629 H 139.3990100916538 37.598699331083324 196.2662134471881 H 0.0 **** 0.06
35630 H 140.40610939551644 36.42925968509694 195.3803639363108 H 0.0 **** 0.06
35631 C 187.31263465735867 49.022745574176156 41.327392428316855 C 0.0 **** -0.24
35632 H 188.4015701636955 49.037468213794085 41.28471476287203 H 0.0 **** 0.06
35633 H 186.93982051755412 50.04098283567441 41.4408040275661 H 0.0 **** 0.06
35634 H 186.98938110820214 48.420684183743305 42.176276340309215 H 0.0 **** 0.06
35635 H 186.91871266176972 48.591602431753586 40.40581780667962 H 0.0 **** 0.06
35636 C 62.60280918312276 7.0524567656247115 34.03836530193195 C 0.0 **** -0.24
35637 H 61.829945377315084 6.3384556569204875 34.323327828374886 H 0.0 **** 0.06
35638 H 62.288791912191584 7.589342000198371 33.14269845441282 H 0.0 **** 0.06
35639 H 63.531920651246566 6.520488727928125 33.83637137619195 H 0.0 **** 0.06
35640 H 62.75928578346338 7.761617784570376 34.85163119945773 H 0.0 **** 0.06
35641 C 187.9408240039083 164.36844965133147 11.148458764700742 C 0.0 **** -0.24
35642 H 187.69085212926188 163.76414812491515 10.277087211007746 H 0.0 **** 0.06
35643 H 187.062320023028 164.46546494618724 11.787403597385662 H 0.0 **** 0.06
35644 H 188.26621090947947 165.35687174657662 10.824141321087318 H 0.0 **** 0.06
35645 H 188.74423354576527 163.88641638073815 11.705506084876014 H 0.0 **** 0.06
35646 C 175.35415730919624 104.97518340272973 165.96269135053277 C 0.0 **** -0.24
35647 H 175.19642748193303 104.34195082903534 165.08926619335614 H 0.0 **** 0.06
35648 H 176.30107995093576 105.50567013302987 165.85905237436833 H 0.0 **** 0.06
35649 H 175.37920919320612 104.35708827167298 166.85932810112362 H 0.0 **** 0.06
35650 H 174.53991178434333 105.69580905668232 166.0395195781851 H 0.0 **** 0.06
35651 C 120.6419370699077 135.10537504722382 80.89378700728872 C 0.0 **** -0.24
35652 H 120.3692245356734 135.55060206285282 79.93631508207648 H 0.0 **** 0.06
35653 H 119.79765497172824 134.53618078974844 81.28273856951125 H 0.0 **** 0.06
35654 H 120.9059714244186 135.893656412926 81.59809092590797 H 0.0 **** 0.06
35655 H 121.49445092957572 134.44055381673786 80.75446172402405 H 0.0 **** 0.06
35656 C 10.634291693212816 34.76382071845285 176.2614356866735 C 0.0 **** -0.24
35657 H 10.829776087003268 35.79498686484675 175.96752599255967 H 0.0 **** 0.06
35658 H 11.526093309959492 34.16083497305095 176.08759446140147 H 0.0 **** 0.06
35659 H 9.807284956550063 34.36865920275085 175.671514576437 H 0.0 **** 0.06
35660 H 10.374272610098103 34.731767125788735 177.31908463964135 H 0.0 **** 0.06
35661 C 146.33022606731953 24.53975075603779 173.81106498659935 C 0.0 **** -0.24
35662 H 146.42032932476872 23.601997443141272 173.26228832761353 H 0.0 **** 0.06
35663 H 145.29372599624057 24.876892180915434 173.78612594524085 H 0.0 **** 0.06
35664 H 146.96827924709459 25.292493398104398 173.3492638248797 H 0.0 **** 0.06
35665 H 146.63753495865438 24.386785530554704 174.84478377374137 H 0.0 **** 0.06
35666 C 197.40042795483336 25.930420459786575 137.47885640084618 C 0.0 **** -0.24
35667 H 198.4583193075802 25.67110669881029 137.43983157374373 H 0.0 **** 0.06
35668 H 196.80425012451133 25.061808466398617 137.19878339716806 H 0.0 **** 0.06
35669 H 197.20076909274664 26.74802176870635 136.78560310024486 H 0.0 **** 0.06
35670 H 197.139197226119 26.240415604985373 138.4907463168289 H 0.0 **** 0.06
35671 C 167.18637346511184 125.90326088956473 189.93755203814965 C 0.0 **** -0.24
35672 H 166.38258420682163 126.63256307145014 189.83087090186376 H 0.0 **** 0.06
35673 H 168.1111938568024 126.41826068866723 190.20080698970844 H 0.0 **** 0.06
35674 H 167.32221440570726 125.37151933384149 188.9966153740474 H 0.0 **** 0.06
35675 H 166.93058567853993 125.19302331730597 190.7240193851331 H 0.0 **** 0.06
35676 C 173.28988365674834 67.02519667661497 101.03083963926838 C 0.0 **** -0.24
35677 H 172.24458322172313 67.31458146972687 101.13332426441744 H 0.0 **** 0.06
35678 H 173.43378173449474 66.0288250284654 101.45007297343412 H 0.0 **** 0.06
35679 H 173.91868747180493 67.73831104946436 101.56416725098077 H 0.0 **** 0.06
35680 H 173.56300210689238 67.01743050752435 99.97600521413614 H 0.0 **** 0.06
35681 C 161.9193753024134 55.24992359467325 69.59340094774672 C 0.0 **** -0.24
35682 H 161.43918341494367 55.494540150189266 70.54128606300154 H 0.0 **** 0.06
35683 H 161.21668032558802 54.70789597781453 68.9600657070589 H 0.0 **** 0.06
35684 H 162.7950181366176 54.628115207816364 69.78036523489362 H 0.0 **** 0.06
35685 H 162.22556021707703 56.16954506307661 69.09466470770528 H 0.0 **** 0.06
35686 C 95.14683036289102 29.15988465802252 173.2002557054367 C 0.0 **** -0.24
35687 H 94.14044643821003 29.574429707391573 173.25537803949797 H 0.0 **** 0.06
35688 H 95.76810051883115 29.79814123206404 172.5716838090728 H 0.0 **** 0.06
35689 H 95.10339809950264 28.158375017939875 172.77087966170205 H 0.0 **** 0.06
35690 H 95.57330782966955 29.10726353022534 174.2013624144673 H 0.0 **** 0.06
35691 C 155.80906546509874 150.73693734203016 186.0732771975812 C 0.0 **** -0.24
35692 H 156.409286309634 150.49101172093754 186.94877259465653 H 0.0 **** 0.06
35693 H 155.2844116598809 149.84568611534112 185.73028405016123 H 0.0 **** 0.06
35694 H 156.45911839662222 151.10555717044292 185.27920584686268 H 0.0 **** 0.06
35695 H 155.08426197911007 151.50770798741843 186.33550458584037 H 0.0 **** 0.06
35696 C 93.79341859269593 146.2943914811536 137.63476760863142 C 0.0 **** -0.24
35697 H 93.36609251779737 147.2687647137533 137.87437549703287 H 0.0 **** 0.06
35698 H 93.12788413783798 145.5079059204525 137.9932478391101 H 0.0 **** 0.06
35699 H 94.76562596750645 146.19614782043865 138.116517191204 H 0.0 **** 0.06
35700 H 93.91200135538841 146.2055896670642 136.55499539042412 H 0.0 **** 0.06
35701 C 51.88063874233438 122.69637124488625 122.91516656122613 C 0.0 **** -0.24
35702 H 51.24771581786405 123.5335308953382 123.20895554303698 H 0.0 **** 0.06
35703 H 52.07213158321983 122.7449611487464 121.84345569326948 H 0.0 **** 0.06
35704 H 51.376103046009604 121.75883933664858 123.1521567904685 H 0.0 **** 0.06
35705 H 52.824485144303026 122.7472653853535 123.45694641839825 H 0.0 **** 0.06
35706 C 30.36888189056546 105.66977342449809 175.64643616350392 C 0.0 **** -0.24
35707 H 30.45029076674487 106.70147502422981 175.98925403966308 H 0.0 **** 0.06
35708 H 29.506176789940582 105.19850901293353 176.11662913621717 H 0.0 **** 0.06
35709 H 31.27376567989822 105.12513972882314 175.9172777457321 H 0.0 **** 0.06
35710 H 30.246854943924305 105.65528118698009 174.56350307410582 H 0.0 **** 0.06
35711 C 92.19453016423006 188.28853858871912 102.52611282044776 C 0.0 **** -0.24
35712 H 93.28425637156144 188.29880147250282 102.54419997075789 H 0.0 **** 0.06
35713 H 91.81417424382275 189.11895034078893 103.12282667661992 H 0.0 **** 0.06
35714 H 91.83346748261064 187.34767974911773 102.94175818782065 H 0.0 **** 0.06
35715 H 91.84648546123267 188.38978134607046 101.49879863184094 H 0.0 **** 0.06
35716 C 26.31235556251025 122.69771543621894 167.24900424812375 C 0.0 **** -0.24
35717 H 25.65313620837709 122.99416181371524 166.4334265018199 H 0.0 **** 0.06
35718 H 25.95071018656607 123.1275053463381 168.18271026208467 H 0.0 **** 0.06
35719 H 27.322184142805213 123.0575810915008 167.04947316829947 H 0.0 **** 0.06
35720 H 26.323697458545794 121.61047356457527 167.32962787808142 H 0.0 **** 0.06
35721 C 26.506421310191342 190.2019131134221 135.8233523316246 C 0.0 **** -0.24
35722 H 27.013078853199204 191.07803144065332 135.4183899914324 H 0.0 **** 0.06
35723 H 26.976581074360553 189.91250433151208 136.7632007427458 H 0.0 **** 0.06
35724 H 26.57881240726192 189.3803385035012 135.11141318415886 H 0.0 **** 0.06
35725 H 25.457899670852612 190.4388959920779 135.99938396443596 H 0.0 **** 0.06
35726 C 177.048280729798 20.88830602029762 110.60159134470229 C 0.0 **** -0.24
35727 H 177.01502100396743 21.24918392049466 111.62984648128705 H 0.0 **** 0.06
35728 H 177.9791684868029 20.34356569100055 110.43854939246742 H 0.0 **** 0.06
35729 H 176.99786485560287 21.735040974213206 109.91772672382487 H 0.0 **** 0.06
35730 H 176.20249678517553 20.225333320301615 110.422230318424 H 0.0 **** 0.06
35731 C 95.67478466143652 74.69822084503522 30.86481339091661 C 0.0 **** -0.24
35732 H 96.19972672342718 73.7442013067277 30.896518352582092 H 0.0 **** 0.06
35733 H 95.56044845799099 75.08419920568788 31.8773115887533 H 0.0 **** 0.06
35734 H 94.69149710165672 74.5564794558775 30.41625276314609 H 0.0 **** 0.06
35735 H 96.2475700628998 75.40788780682963 30.266940166506487 H 0.0 **** 0.06
35736 C 125.85270098962542 50.8996564129923 22.653587294228785 C 0.0 **** -0.24
35737 H 126.80804944273689 50.97878362820872 23.171578492245686 H 0.0 **** 0.06
35738 H 125.45304667419862 49.89337332305739 22.781044987678598 H 0.0 **** 0.06
35739 H 125.99699347808291 51.10225943839649 21.592156946601932 H 0.0 **** 0.06
35740 H 125.1522374297931 51.624914341000704 23.07009355502609 H 0.0 **** 0.06
35741 C 14.944268636032376 99.93519149025525 71.18688068823673 C 0.0 **** -0.24
35742 H 15.247088065727326 98.89653854237218 71.3203577791625 H 0.0 **** 0.06
35743 H 15.726524167501694 100.59332682723124 71.56628266991758 H 0.0 **** 0.06
35744 H 14.019583397023581 100.11701994782018 71.73432867358316 H 0.0 **** 0.06
35745 H 14.7840643256596 100.13422530346585 70.12747387680619 H 0.0 **** 0.06
35746 C 109.97760569238164 100.32534195595485 33.75359138130648 C 0.0 **** -0.24
35747 H 110.551654162945 101.04436379449561 34.33769978128841 H 0.0 **** 0.06
35748 H 109.35147376722068 99.73255992659759 34.421509783152345 H 0.0 **** 0.06
35749 H 110.66035308234129 99.66689560894852 33.216120356898216 H 0.0 **** 0.06
35750 H 109.34772987820253 100.8563412011512 33.04042174817316 H 0.0 **** 0.06
35751 C 161.10098820522884 3.2960663131974073 64.38953730896226 C 0.0 **** -0.24
35752 H 160.86864844158953 3.452738208275541 63.336112495955646 H 0.0 **** 0.06
35753 H 160.7586128252177 4.154663459846233 64.96817946590122 H 0.0 **** 0.06
35754 H 162.17835769549058 3.181343256193145 64.51058809762586 H 0.0 **** 0.06
35755 H 160.59745747894377 2.395477312657661 64.74177579993793 H 0.0 **** 0.06
35756 C 44.830830401663945 81.11583233714032 57.23115910318394 C 0.0 **** -0.24
35757 H 44.207965588493806 81.73561108465697 56.58567058678763 H 0.0 **** 0.06
35758 H 45.87665067857756 81.39400134974267 57.103285659944405 H 0.0 **** 0.06
35759 H 44.6979387631952 80.06686627989694 56.9644575330621 H 0.0 **** 0.06
35760 H 44.53811814108195 81.26597005224164 58.27076378802546 H 0.0 **** 0.06
35761 C 161.68011288391563 57.948231127526284 46.678267082570926 C 0.0 **** -0.24
35762 H 161.59764799318233 59.03433834780775 46.68056798169215 H 0.0 **** 0.06
35763 H 160.68621601731192 57.50805964355074 46.76661182407099 H 0.0 **** 0.06
35764 H 162.295907487958 57.62845528013469 47.518255220834504 H 0.0 **** 0.06
35765 H 162.13951255505157 57.621114498233595 45.74451530871187 H 0.0 **** 0.06
35766 C 181.3971700176285 70.51146834550919 68.48619903959832 C 0.0 **** -0.24
35767 H 181.49186019282553 71.07595849836616 67.55924365039817 H 0.0 **** 0.06
35768 H 180.68555368876764 69.69656770141455 68.34372840925084 H 0.0 **** 0.06
35769 H 181.04180210474647 71.17002009196132 69.27787757059872 H 0.0 **** 0.06
35770 H 182.36893023357092 70.10088371407504 68.76228969057573 H 0.0 **** 0.06
35771 C 109.14606229204799 77.85684080613919 173.884986376656 C 0.0 **** -0.24
35772 H 109.13760278640868 77.44625964064613 172.87507883852504 H 0.0 **** 0.06
35773 H 109.34972306262662 78.9264048183669 173.84089804276164 H 0.0 **** 0.06
35774 H 109.92069821072039 77.36262593115828 174.47103887083358 H 0.0 **** 0.06
35775 H 108.17521292239135 77.68984402187425 174.35284028998962 H 0.0 **** 0.06
35776 C 123.77908433912245 63.65052890826547 90.1311510695854 C 0.0 **** -0.24
35777 H 123.07794243570069 63.96569961732098 90.9047337510109 H 0.0 **** 0.06
35778 H 124.6223279686798 64.34080030667701 90.10214648387833 H 0.0 **** 0.06
35779 H 123.27566376248373 63.64997583660761 89.16408379615461 H 0.0 **** 0.06
35780 H 124.1395896334063 62.64660135144419 90.35428346395463 H 0.0 **** 0.06
35781 C 144.04833384767724 141.38799884195043 66.25187003144613 C 0.0 **** -0.24
35782 H 143.59431625181253 140.76126917898836 67.01911811616668 H 0.0 **** 0.06
35783 H 145.0146418655331 141.7509208219698 66.60542226861436 H 0.0 **** 0.06
35784 H 143.39636860332112 142.23598212106933 66.0417763272862 H 0.0 **** 0.06
35785 H 144.18936531701647 140.8040916071533 65.34220627325146 H 0.0 **** 0.06
35786 C 87.22375992267129 76.43573285478621 132.01797272159138 C 0.0 **** -0.24
35787 H 86.96175894383376 77.49098525547602 131.94402320548193 H 0.0 **** 0.06
35788 H 86.73291111333296 75.88291554965765 131.21678599981487 H 0.0 **** 0.06
35789 H 86.8949778481302 76.04654093393349 132.98240193770687 H 0.0 **** 0.06
35790 H 88.30359564333475 76.32214816030623 131.92996712289147 H 0.0 **** 0.06
35791 C 60.364632940408995 111.60795523293487 149.14838268798007 C 0.0 **** -0.24
35792 H 59.34991423594637 111.59704258882948 149.5449914688587 H 0.0 **** 0.06
35793 H 60.98468681334914 112.26933359511474 149.75373510117436 H 0.0 **** 0.06
35794 H 60.348204776487464 111.966293941907 148.1186573910901 H 0.0 **** 0.06
35795 H 60.774904817733 110.5978865098825 149.17449529791907 H 0.0 **** 0.06
35796 C 37.42784907375491 178.54052447040917 55.998099843069326 C 0.0 **** -0.24
35797 H 36.384174204369046 178.49714415859773 56.307071630582584 H 0.0 **** 0.06
35798 H 37.512373326669874 179.13063970171862 55.08516426891913 H 0.0 **** 0.06
35799 H 37.79469968080609 177.53044479656387 55.81318530318504 H 0.0 **** 0.06
35800 H 38.021147152161774 179.00392959130437 56.78696281402546 H 0.0 **** 0.06
35801 C 120.51828586237434 2.0349235777251593 21.44690315327351 C 0.0 **** -0.24
35802 H 120.94135885049138 2.1232328103503875 22.447043836475217 H 0.0 **** 0.06
35803 H 119.80673006922461 2.8438962563473 21.28085723940157 H 0.0 **** 0.06
35804 H 120.00854410382522 1.076134952378176 21.35231777972082 H 0.0 **** 0.06
35805 H 121.31797516968345 2.096224947857614 20.708295103444755 H 0.0 **** 0.06
35806 C 31.421190154417076 94.75585084382928 70.77651956853805 C 0.0 **** -0.24
35807 H 30.582326353861333 95.35589759975761 70.42284300300551 H 0.0 **** 0.06
35808 H 31.34306991713757 94.62332123124293 71.85614674386932 H 0.0 **** 0.06
35809 H 32.3555264650189 95.26372808736048 70.53996086506615 H 0.0 **** 0.06
35810 H 31.40172462352706 93.78156007414339 70.2876900667877 H 0.0 **** 0.06
35811 C 117.79320799066758 179.58181412563914 10.717190234800114 C 0.0 **** -0.24
35812 H 116.80963548404554 179.84956122212316 10.328526699828075 H 0.0 **** 0.06
35813 H 117.77060734896654 179.6048399913512 11.806880883891012 H 0.0 **** 0.06
35814 H 118.53338898554688 180.29436399348066 10.352998711326336 H 0.0 **** 0.06
35815 H 118.05632813012733 178.58003651460217 10.379751260611897 H 0.0 **** 0.06
35816 C 116.3537734363019 64.7412878770499 23.807455131417257 C 0.0 **** -0.24
35817 H 116.25963528517312 65.5665110642691 24.51354676073771 H 0.0 **** 0.06
35818 H 117.40916830829772 64.55807294576755 23.60384360829697 H 0.0 **** 0.06
35819 H 115.84438027269451 64.99890113524646 22.87885850361137 H 0.0 **** 0.06
35820 H 115.90376098246168 63.84534976144329 24.233491910260327 H 0.0 **** 0.06
35821 C 99.45962817284175 144.4694004358546 112.99445548071293 C 0.0 **** -0.24
35822 H 100.43690962566228 144.50506416780772 112.513023509318 H 0.0 **** 0.06
35823 H 98.67953528122607 144.44039206617822 112.23258192506935 H 0.0 **** 0.06
35824 H 99.32820858593004 145.35575584490329 113.61504444431884 H 0.0 **** 0.06
35825 H 99.3934934603895 143.57700422386813 113.61647306343463 H 0.0 **** 0.06
35826 C 65.93369638910457 85.47742895398409 103.11562548767381 C 0.0 **** -0.24
35827 H 65.71944459495865 85.2420394895482 104.15841389594283 H 0.0 **** 0.06
35828 H 65.68353443808411 86.52059562358528 102.92061780773167 H 0.0 **** 0.06
35829 H 65.33994455373266 84.83346594430935 102.46830714058797 H 0.0 **** 0.06
35830 H 66.99294823014804 85.31450683597197 102.91781347064114 H 0.0 **** 0.06
35831 C 58.81851783161085 163.91270241304022 21.64339970389136 C 0.0 **** -0.24
35832 H 58.51244780938143 164.49024725699738 20.772400433548682 H 0.0 **** 0.06
35833 H 58.0145867728904 163.9138504087914 22.38099936906525 H 0.0 **** 0.06
35834 H 59.71261033633314 164.35808668620203 22.078799644307566 H 0.0 **** 0.06
35835 H 59.03376464100137 162.8866828734356 21.34228771042416 H 0.0 **** 0.06
35836 C 46.40229450821474 99.9992320303177 39.70605145413511 C 0.0 **** -0.24
35837 H 47.209154413362526 100.42232987295051 40.30508818770407 H 0.0 **** 0.06
35838 H 45.44482501780877 100.36735680047346 40.074894259862475 H 0.0 **** 0.06
35839 H 46.42816209875342 98.91251298408977 39.77890911977764 H 0.0 **** 0.06
35840 H 46.529566607521716 100.29632366936528 38.665081688679365 H 0.0 **** 0.06
35841 C 17.422876079518858 46.311630718809226 25.719903441175845 C 0.0 **** -0.24
35842 H 17.302897849667346 45.30532870406722 25.319177660383474 H 0.0 **** 0.06
35843 H 17.98194519780884 46.921665986062976 25.00984612455494 H 0.0 **** 0.06
35844 H 17.96469992390081 46.2642291332898 26.66463128485502 H 0.0 **** 0.06
35845 H 16.441633529358285 46.75495481073051 25.887290639765922 H 0.0 **** 0.06
35846 C 23.226568188631532 14.152021537834628 26.424808443826976 C 0.0 **** -0.24
35847 H 23.640971045752735 13.347872965486317 27.033576911299576 H 0.0 **** 0.06
35848 H 23.524638765821635 14.011610997338522 25.386264524413377 H 0.0 **** 0.06
35849 H 23.601307101160756 15.110405580600798 26.78496461551333 H 0.0 **** 0.06
35850 H 22.13907477642836 14.137206205828875 26.496650388175397 H 0.0 **** 0.06
35851 C 113.37754339245308 27.9244617200045 132.47983030652722 C 0.0 **** -0.24
35852 H 113.75418931337441 28.905992295096155 132.76668785104667 H 0.0 **** 0.06
35853 H 112.9137519833447 27.446850980243255 133.34367069759512 H 0.0 **** 0.06
35854 H 114.20283986609599 27.308417596412312 132.12192799577602 H 0.0 **** 0.06
35855 H 112.6371240555639 28.037509682401662 131.6869954698783 H 0.0 **** 0.06
35856 C 57.04132461393374 63.67639898565545 89.75835041739569 C 0.0 **** -0.24
35857 H 56.42114697605632 63.81293618730473 90.64449147905816 H 0.0 **** 0.06
35858 H 57.959029401625884 64.25618629094157 89.86439435909327 H 0.0 **** 0.06
35859 H 56.49716281315244 64.01594251587022 88.87759574837972 H 0.0 **** 0.06
35860 H 57.28969694460318 62.62048815759408 89.64832676221621 H 0.0 **** 0.06
35861 C 192.0223606939291 30.14798036507314 14.706176923449277 C 0.0 **** -0.24
35862 H 191.79454327348972 30.252917666948022 13.64533901311296 H 0.0 **** 0.06
35863 H 192.8644155814548 29.467051197926793 14.831099791293639 H 0.0 **** 0.06
35864 H 191.1518044494537 29.748556120828354 15.227050030771863 H 0.0 **** 0.06
35865 H 192.27780354346106 31.122995440538887 15.12095063539806 H 0.0 **** 0.06
35866 C 66.41882220670946 145.7750941244608 169.23685258976295 C 0.0 **** -0.24
35867 H 66.9566222385664 146.51323459496504 169.8326994457066 H 0.0 **** 0.06
35868 H 65.62927623797208 146.2702870457624 168.67174657063802 H 0.0 **** 0.06
35869 H 65.97962916255153 145.02707862101346 169.89771035173982 H 0.0 **** 0.06
35870 H 67.11078758152117 145.29040095130887 168.54817913419473 H 0.0 **** 0.06
35871 C 11.40144503862301 42.70601581988052 178.43191138969715 C 0.0 **** -0.24
35872 H 10.563779057333655 42.50825879476393 179.10117184579843 H 0.0 **** 0.06
35873 H 12.336105413783272 42.456872223026764 178.93653816398358 H 0.0 **** 0.06
35874 H 11.406353922166218 43.76191654157789 178.15809157562833 H 0.0 **** 0.06
35875 H 11.30004002348376 42.098667480139255 177.53326648233724 H 0.0 **** 0.06
35876 C 84.5920117349861 85.4835463205475 0.8724747913112196 C 0.0 **** -0.24
35877 H 84.32691887007877 86.46350794498275 0.4758847445395702 H 0.0 **** 0.06
35878 H 83.95985434564898 85.2559230413847 1.731247973267159 H 0.0 **** 0.06
35879 H 85.63703398257792 85.48740739095672 1.1802543368886802 H 0.0 **** 0.06
35880 H 84.44310948670577 84.72793201379355 0.10041919367861851 H 0.0 **** 0.06
35881 C 137.8766182299924 79.30559334093945 17.42592679532332 C 0.0 **** -0.24
35882 H 138.45683206065112 78.38365164891852 17.44971943822948 H 0.0 **** 0.06
35883 H 136.91985306403564 79.11980005500908 16.937299159135634 H 0.0 **** 0.06
35884 H 138.42620322871025 80.06662735057495 16.871369078115222 H 0.0 **** 0.06
35885 H 137.70344456845262 79.65184744219616 18.443985057015965 H 0.0 **** 0.06
35886 C 165.1883009312854 190.20463000648988 55.320558098983554 C 0.0 **** -0.24
35887 H 165.09580423735937 189.4095820681082 54.58044065781468 H 0.0 **** 0.06
35888 H 166.21458895420153 190.24176530207967 55.687144468433615 H 0.0 **** 0.06
35889 H 164.5114111362799 190.00645892744686 56.15259244108 H 0.0 **** 0.06
35890 H 164.9314999087927 191.15900991710498 54.86234976862863 H 0.0 **** 0.06
35891 C 43.07163117310294 194.98212196862056 177.37605136019178 C 0.0 **** -0.24
35892 H 42.04466530121326 194.6207137964874 177.416878904039 H 0.0 **** 0.06
35893 H 43.54831370675346 194.61934702292973 176.46549725431228 H 0.0 **** 0.06
35894 H 43.62032203531348 194.6154300492922 178.24381807187376 H 0.0 **** 0.06
35895 H 43.073886182961516 196.07175727721597 177.3781666623432 H 0.0 **** 0.06
35896 C 161.87577455456267 110.25939203359485 84.94432378194185 C 0.0 **** -0.24
35897 H 161.94781526574837 109.98168314510445 83.89213006399535 H 0.0 **** 0.06
35898 H 160.95946617008917 110.82784739456147 85.10716159971804 H 0.0 **** 0.06
35899 H 162.7366126360501 110.8691441720905 85.21920887769909 H 0.0 **** 0.06
35900 H 161.8575034061015 109.35790365240055 85.55653007050813 H 0.0 **** 0.06
35901 C 61.768060696191924 72.46325328085591 146.47262007123854 C 0.0 **** -0.24
35902 H 62.370269400504185 71.73527413127685 147.01604045410036 H 0.0 **** 0.06
35903 H 60.71167545854405 72.22455090983823 146.59561230302214 H 0.0 **** 0.06
35904 H 62.028150647387804 72.43214366052386 145.41440407327173 H 0.0 **** 0.06
35905 H 61.96387502784677 73.4607437701725 146.86685752209655 H 0.0 **** 0.06
35906 C 40.49279518848547 191.2041497633387 14.498909164368456 C 0.0 **** -0.24
35907 H 40.30574297162599 191.24953454222677 15.571851089917402 H 0.0 **** 0.06
35908 H 41.08290526578219 192.0696262797709 14.196037577470321 H 0.0 **** 0.06
35909 H 39.543107775458225 191.20700577648176 13.963494975681414 H 0.0 **** 0.06
35910 H 41.03949124513298 190.29137996856866 14.263940257904807 H 0.0 **** 0.06
35911 C 56.34318110105633 55.10836279819189 198.65804020100228 C 0.0 **** -0.24
35912 H 57.16578504451056 54.82645823998379 199.31611259708376 H 0.0 **** 0.06
35913 H 55.39879690269285 54.79819138962567 199.1039985404746 H 0.0 **** 0.06
35914 H 56.46787197604897 54.61917611210846 197.6916803988753 H 0.0 **** 0.06
35915 H 56.343394684021646 56.18913764238043 198.52032909071772 H 0.0 **** 0.06
35916 C 50.02754673845408 133.53806222100954 116.70784164052418 C 0.0 **** -0.24
35917 H 50.5747707695443 132.66788665658484 116.34767641183979 H 0.0 **** 0.06
35918 H 49.24244850575552 133.21628534162755 117.39234225775726 H 0.0 **** 0.06
35919 H 49.58150232429891 134.06217992983935 115.8629347357712 H 0.0 **** 0.06
35920 H 50.712110026018124 134.20796399991625 117.22897157927946 H 0.0 **** 0.06
35921 C 46.05092780847845 56.1305114116026 59.362700424116966 C 0.0 **** -0.24
35922 H 46.518641769852806 55.502935852055856 58.60404025562731 H 0.0 **** 0.06
35923 H 45.87814303370145 57.12611170834512 58.95482649916272 H 0.0 **** 0.06
35924 H 46.70804293658476 56.20165439523538 60.2300372035438 H 0.0 **** 0.06
35925 H 45.100398102624254 55.6904848253202 59.663300741429865 H 0.0 **** 0.06
35926 C 138.1198186278845 175.07903872298087 191.48654571695062 C 0.0 **** -0.24
35927 H 138.78117861874958 174.80783453096575 192.30871839067777 H 0.0 **** 0.06
35928 H 137.32848008527907 174.33416271923213 191.39650819529186 H 0.0 **** 0.06
35929 H 138.69074712071665 175.11675637485422 190.55840901761502 H 0.0 **** 0.06
35930 H 137.67922666689367 176.05579035997096 191.68202105698083 H 0.0 **** 0.06
35931 C 63.800462032384814 119.4708440630802 28.406380835182063 C 0.0 **** -0.24
35932 H 63.488324257161594 120.28961189121051 29.054658503035427 H 0.0 **** 0.06
35933 H 64.44674258412607 118.79227101250274 28.96271772596424 H 0.0 **** 0.06
35934 H 64.34510668643611 119.87262080134064 27.551098795464725 H 0.0 **** 0.06
35935 H 62.921604201234175 118.93038889062282 28.05446066459939 H 0.0 **** 0.06
35936 C 33.5383518600015 40.36295700626536 99.05057730678814 C 0.0 **** -0.24
35937 H 34.556601264240626 40.11123645150347 98.75375985515589 H 0.0 **** 0.06
35938 H 32.87483845981575 40.266336167915 98.19144282665124 H 0.0 **** 0.06
35939 H 33.51099836041482 41.38839301115924 99.4185493966722 H 0.0 **** 0.06
35940 H 33.21261150482114 39.68493485016147 99.83975844602827 H 0.0 **** 0.06
35941 C 72.30957164469967 194.22896831573843 131.41781255893255 C 0.0 **** -0.24
35942 H 71.59225132049602 193.66572108322197 132.01299298973476 H 0.0 **** 0.06
35943 H 72.01501510799997 194.19754517776218 130.3686854349563 H 0.0 **** 0.06
35944 H 73.3000952280663 193.78869458479593 131.5305988446591 H 0.0 **** 0.06
35945 H 72.33007826830328 195.26441025661478 131.75878493812365 H 0.0 **** 0.06
35946 C 134.12948921451792 124.12661320499274 137.16955673204086 C 0.0 **** -0.24
35947 H 134.9747334967712 124.33777472025577 136.51445399051823 H 0.0 **** 0.06
35948 H 134.4979165552128 123.8238905550408 138.14970109554804 H 0.0 **** 0.06
35949 H 133.53164858574692 123.32237913190431 136.74079477089924 H 0.0 **** 0.06
35950 H 133.51725463814594 125.02155480512272 137.27096675873582 H 0.0 **** 0.06
35951 C 134.4002511813896 58.86450160902413 50.06681756336616 C 0.0 **** -0.24
35952 H 135.22430509775725 58.20888232590808 49.78608072488032 H 0.0 **** 0.06
35953 H 134.15544108034877 59.51861330582116 49.22868951147768 H 0.0 **** 0.06
35954 H 134.69252702824642 59.468284828939446 50.92584162047541 H 0.0 **** 0.06
35955 H 133.52856788868266 58.26304342493977 50.32395558803984 H 0.0 **** 0.06
35956 C 48.37662143247846 10.307077623141765 79.26280705256693 C 0.0 **** -0.24
35957 H 47.991636220958895 10.80942200932708 80.14952750432005 H 0.0 **** 0.06
35958 H 47.5553131458056 9.820318442331427 78.7357160675268 H 0.0 **** 0.06
35959 H 49.112221316360205 9.55863016537262 79.55920360851917 H 0.0 **** 0.06
35960 H 48.84756699117699 11.038554551371789 78.60664895333733 H 0.0 **** 0.06
35961 C 35.736335865588856 167.1859754066718 139.09688845100152 C 0.0 **** -0.24
35962 H 35.89031884692551 168.080805741625 139.70022467806479 H 0.0 **** 0.06
35963 H 35.617353811046016 167.46978884383162 138.05094395009075 H 0.0 **** 0.06
35964 H 34.841563617450575 166.66782960948467 139.438470342725 H 0.0 **** 0.06
35965 H 36.599451406478394 166.52715342912677 139.1980016147338 H 0.0 **** 0.06
35966 C 81.78019082622308 154.59174085284405 123.66295931718412 C 0.0 **** -0.24
35967 H 80.72853130152754 154.3063446229234 123.62661468056268 H 0.0 **** 0.06
35968 H 82.23850492118527 154.408926496846 122.69103247621098 H 0.0 **** 0.06
35969 H 82.29020679087012 154.0008884215963 124.42289140148023 H 0.0 **** 0.06
35970 H 81.86100368338532 155.65059267951898 123.90939547657695 H 0.0 **** 0.06
35971 C 90.02027113553086 88.13419949972706 112.36522370896483 C 0.0 **** -0.24
35972 H 88.93297459642383 88.07242027736493 112.32497154996275 H 0.0 **** 0.06
35973 H 90.45288082947533 87.27049048412354 111.86012839623766 H 0.0 **** 0.06
35974 H 90.34548522086985 88.14772830600592 113.40553109347127 H 0.0 **** 0.06
35975 H 90.3498732059175 89.04754655098537 111.87050428306077 H 0.0 **** 0.06
35976 C 154.87142027037058 66.16862124519308 70.43300763682515 C 0.0 **** -0.24
35977 H 154.21279295245066 65.32447162212401 70.23039189755082 H 0.0 **** 0.06
35978 H 155.82185014205777 65.80322131852454 70.82319304920998 H 0.0 **** 0.06
35979 H 154.40466342367407 66.8251612460856 71.16814978797439 H 0.0 **** 0.06
35980 H 155.0456449064677 66.72228411194179 69.51009382682065 H 0.0 **** 0.06
35981 C 95.60844360265179 58.02452890587409 24.585864368961325 C 0.0 **** -0.24
35982 H 95.88795609674162 58.90236763610278 25.16725286408392 H 0.0 **** 0.06
35983 H 94.57494448491741 57.756345834396654 24.806577101483626 H 0.0 **** 0.06
35984 H 96.26323667829558 57.19319915329592 24.846134501948924 H 0.0 **** 0.06
35985 H 95.70763715065243 58.24620299970093 23.523493008328856 H 0.0 **** 0.06
35986 C 193.49470911797326 7.748821621539648 91.98744325501494 C 0.0 **** -0.24
35987 H 194.1119940656375 7.847796038233831 92.87932329252905 H 0.0 **** 0.06
35988 H 193.14485634827201 8.733775142799061 91.67695766636979 H 0.0 **** 0.06
35989 H 192.63837765182333 7.11139432563008 92.2065814187971 H 0.0 **** 0.06
35990 H 194.08371626679005 7.3033437172251965 91.18593986079503 H 0.0 **** 0.06
35991 C 83.63921753346187 42.7985773783073 14.253894851405015 C 0.0 **** -0.24
35992 H 84.66575629601084 43.078685630455055 14.486170931023906 H 0.0 **** 0.06
35993 H 83.10533480210938 42.57448240907047 15.17739761607747 H 0.0 **** 0.06
35994 H 83.63870699884626 41.918239445181456 13.611424200035692 H 0.0 **** 0.06
35995 H 83.14592169467528 43.623889169671685 13.739748607164877 H 0.0 **** 0.06
35996 C 36.23671505583985 85.25116707897865 189.3065949251058 C 0.0 **** -0.24
35997 H 35.63659661383193 86.12294700640791 189.04568823975853 H 0.0 **** 0.06
35998 H 36.76816344539455 85.44246342488896 190.23945291244874 H 0.0 **** 0.06
35999 H 36.954994535856 85.05438064317576 188.51154942934755 H 0.0 **** 0.06
36000 H 35.584640494553355 84.38656210492786 189.4293983521064 H 0.0 **** 0.06
36001 C 169.62443699453794 55.42874247463115 107.00528589258283 C 0.0 **** -0.24
36002 H 168.69862059639865 55.6690112209175 107.53002740473934 H 0.0 **** 0.06
36003 H 169.90808884731558 54.399163046562265 107.2228439400711 H 0.0 **** 0.06
36004 H 170.41393990241014 56.10191990007421 107.33658176398501 H 0.0 **** 0.06
36005 H 169.47264015074578 55.5457824947068 105.93223834668763 H 0.0 **** 0.06
36006 C 181.80086818000768 117.20827878831679 7.335750427871972 C 0.0 **** -0.24
36007 H 182.00442751220018 116.14362459464948 7.223939364393999 H 0.0 **** 0.06
36008 H 182.48802252611245 117.63434684071925 8.066627022942328 H 0.0 **** 0.06
36009 H 180.77476288307804 117.34733157531224 7.677569013157694 H 0.0 **** 0.06
36010 H 181.9349175166042 117.7065235421592 6.376106430326658 H 0.0 **** 0.06
36011 C 149.42408753946359 163.76625465889862 196.45646382184023 C 0.0 **** -0.24
36012 H 148.92000812031856 162.80624223122578 196.3396229570491 H 0.0 **** 0.06
36013 H 150.46134938971235 163.59783692909645 196.74442212623077 H 0.0 **** 0.06
36014 H 148.92144943189749 164.3482723043773 197.22806802514197 H 0.0 **** 0.06
36015 H 149.39289808487868 164.30956213567515 195.51175651410108 H 0.0 **** 0.06
36016 C 182.00705080775785 79.12594464800108 153.5879720324642 C 0.0 **** -0.24
36017 H 181.41869080527613 80.00808556870388 153.83872004671522 H 0.0 **** 0.06
36018 H 181.34231136473068 78.33335430582002 153.24323050250402 H 0.0 **** 0.06
36019 H 182.54877575187848 78.78780081854254 154.47126616013693 H 0.0 **** 0.06
36020 H 182.71647048860123 79.37492429536792 152.79884306228564 H 0.0 **** 0.06
36021 C 86.17886324444419 120.57774441170483 68.35127630870835 C 0.0 **** -0.24
36022 H 87.1892937586968 120.27083792081874 68.6200294457164 H 0.0 **** 0.06
36023 H 85.46850014005827 119.81831645304334 68.67914081403092 H 0.0 **** 0.06
36024 H 86.11137017980951 120.69756745109362 67.2699753292033 H 0.0 **** 0.06
36025 H 85.94691595353163 121.52615279592345 68.83605118147068 H 0.0 **** 0.06
36026 C 164.0745920696637 161.99708555696742 103.8517548690644 C 0.0 **** -0.24
36027 H 163.96684857354484 160.9856108269389 104.24268693382342 H 0.0 **** 0.06
36028 H 163.37747162043706 162.6605039148045 104.36380842911257 H 0.0 **** 0.06
36029 H 163.86024094528162 161.99856101433733 102.78323388572704 H 0.0 **** 0.06
36030 H 165.09474966348617 162.3437603865122 104.01834040452661 H 0.0 **** 0.06
36031 C 76.65997470981415 86.61618368004196 153.92809511792518 C 0.0 **** -0.24
36032 H 77.70014045772916 86.31682807100225 153.79682389709458 H 0.0 **** 0.06
36033 H 76.61299727164976 87.68815169773 154.11990849587866 H 0.0 **** 0.06
36034 H 76.2310169879571 86.07672716622926 154.77278715292283 H 0.0 **** 0.06
36035 H 76.09837560167819 86.38267309426749 153.02425724352412 H 0.0 **** 0.06
36036 C 184.79790879043412 83.73971336759271 142.71439490639017 C 0.0 **** -0.24
36037 H 183.80888242750547 83.72552110991995 142.25681200885154 H 0.0 **** 0.06
36038 H 185.22532107917397 82.73692352674937 142.68935553693424 H 0.0 **** 0.06
36039 H 184.7146977537605 84.07460712390304 143.74877046552382 H 0.0 **** 0.06
36040 H 185.44327593130328 84.42377829111348 142.16174750136116 H 0.0 **** 0.06
36041 C 71.2525373107643 2.0764213362516415 44.749541574044486 C 0.0 **** -0.24
36042 H 71.18836101376502 1.975407219419246 45.833232141746635 H 0.0 **** 0.06
36043 H 71.77955859594987 1.217014525365471 44.336195277451 H 0.0 **** 0.06
36044 H 71.79428235552838 2.989136774599615 44.50168372251278 H 0.0 **** 0.06
36045 H 70.24803383402445 2.124255126477088 44.329879374686584 H 0.0 **** 0.06
36046 C 188.98454954068038 154.04209179326654 195.66897712491078 C 0.0 **** -0.24
36047 H 188.52120887553144 154.4193047529538 194.75757299762904 H 0.0 **** 0.06
36048 H 189.15349000674257 154.86798411689742 196.36006009669654 H 0.0 **** 0.06
36049 H 189.93713913690698 153.5718248091893 195.42387975846606 H 0.0 **** 0.06
36050 H 188.3259688197597 153.3081343636118 196.13313292056858 H 0.0 **** 0.06
36051 C 34.970233734377274 40.00665545737054 28.059060270800103 C 0.0 **** -0.24
36052 H 34.93710792323682 40.99680736062439 28.512793183053645 H 0.0 **** 0.06
36053 H 34.16046568118145 39.395978895754524 28.45983520104096 H 0.0 **** 0.06
36054 H 35.92653828606177 39.535135154756745 28.2850622336033 H 0.0 **** 0.06
36055 H 34.8561585461959 40.09749694864388 26.978882342816178 H 0.0 **** 0.06
36056 C 113.69182187686431 7.498333123324585 58.834113644589834 C 0.0 **** -0.24
36057 H 113.15008615337842 8.440799999871558 58.912326617613274 H 0.0 **** 0.06
36058 H 114.65765378588333 7.672995104738277 58.35860378434616 H 0.0 **** 0.06
36059 H 113.113209710815 6.795614784663599 58.233884857417266 H 0.0 **** 0.06
36060 H 113.8462326586764 7.084580984038439 59.82975370092532 H 0.0 **** 0.06
36061 C 1.3719363729169345 169.35437701917124 94.2268360078497 C 0.0 **** -0.24
36062 H 1.01910905564759 168.458020770048 94.73464403421912 H 0.0 **** 0.06
36063 H 1.2813968765539698 169.22096985117372 93.14883470496741 H 0.0 **** 0.06
36064 H 2.416266628661731 169.53066355843865 94.48499111748026 H 0.0 **** 0.06
36065 H 0.7721908862538953 170.2094789106656 94.53981013588208 H 0.0 **** 0.06
36066 C 56.24176060671937 162.23622910547655 25.41006330470742 C 0.0 **** -0.24
36067 H 56.98470276051671 162.65349759058628 24.73050782882899 H 0.0 **** 0.06
36068 H 56.5773518167004 162.3667565356853 26.439238133614055 H 0.0 **** 0.06
36069 H 56.11362479901916 161.17428737384736 25.201135927401197 H 0.0 **** 0.06
36070 H 55.29081315033318 162.75162484760148 25.269003445384953 H 0.0 **** 0.06
36071 C 51.08964713624776 135.1178896181766 62.615577208171885 C 0.0 **** -0.24
36072 H 51.846634021019284 135.36465425767176 63.359720838129704 H 0.0 **** 0.06
36073 H 51.56458094215374 134.64440087315592 61.75696615179373 H 0.0 **** 0.06
36074 H 50.58474142445844 136.0303173589745 62.29533735501488 H 0.0 **** 0.06
36075 H 50.36180721174915 134.43367679187674 63.05173261116636 H 0.0 **** 0.06
36076 C 12.685194777731567 28.008395193427717 194.01432206858584 C 0.0 **** -0.24
36077 H 11.86498632201969 27.40829706190425 193.62104482335783 H 0.0 **** 0.06
36078 H 12.52634798962589 29.055168756712746 193.75428457528318 H 0.0 **** 0.06
36079 H 13.625274012345102 27.66443627548577 193.58350311794845 H 0.0 **** 0.06
36080 H 12.722351184708145 27.90450233962291 195.0990083697851 H 0.0 **** 0.06
36081 C 11.294488850359187 42.31175258009574 30.882883979460985 C 0.0 **** -0.24
36082 H 12.089484134124177 42.55145674245736 31.588627618276178 H 0.0 **** 0.06
36083 H 11.411645657208396 41.283119264417905 30.540014479122306 H 0.0 **** 0.06
36084 H 11.350508062635356 42.987464089056715 30.028938720616537 H 0.0 **** 0.06
36085 H 10.32758174160682 42.423843379643756 31.37289108834966 H 0.0 **** 0.06
36086 C 49.586309795436065 46.759065854615244 87.91250691177154 C 0.0 **** -0.24
36087 H 50.51414288260938 47.02237994423069 87.40406011181057 H 0.0 **** 0.06
36088 H 49.39575934587282 45.692688589420584 87.78844743741385 H 0.0 **** 0.06
36089 H 48.761909879771736 47.328290068814255 87.48162957262028 H 0.0 **** 0.06
36090 H 49.673882247867326 46.992452414011325 88.97248635013844 H 0.0 **** 0.06
36091 C 42.914193858418855 13.871558855651358 81.72652810081195 C 0.0 **** -0.24
36092 H 42.21577373304174 14.102626145619695 82.53010254828956 H 0.0 **** 0.06
36093 H 43.14419379911752 12.805969481595184 81.74020309893137 H 0.0 **** 0.06
36094 H 43.8317132835048 14.44315059636989 81.86715766354155 H 0.0 **** 0.06
36095 H 42.46577346665052 14.134902909490165 80.76804243789746 H 0.0 **** 0.06
36096 C 183.7843844266264 51.656406165222336 1.1458399324729385 C 0.0 **** -0.24
36097 H 183.22025421188349 52.13451685617534 0.3448218564362264 H 0.0 **** 0.06
36098 H 184.84456434745363 51.87997336246542 1.0270547250200934 H 0.0 **** 0.06
36099 H 183.63258088519078 50.57794633343909 1.1026802778310412 H 0.0 **** 0.06
36100 H 183.43787923723377 52.03377057275554 2.108056095766301 H 0.0 **** 0.06
36101 C 144.70006417376916 195.99524297506838 124.15150623813506 C 0.0 **** -0.24
36102 H 145.39635467453374 195.43822183465798 124.7783089720624 H 0.0 **** 0.06
36103 H 144.59266793762893 195.48976920139668 123.191928211608 H 0.0 **** 0.06
36104 H 145.08314876212793 197.003365749895 123.99062625290043 H 0.0 **** 0.06
36105 H 143.73047569709652 196.04939355508984 124.64564848855483 H 0.0 **** 0.06
36106 C 141.30287241811192 139.84185682996053 108.99209694653132 C 0.0 **** -0.24
36107 H 141.6583124841593 138.8413196080669 108.74585456957351 H 0.0 **** 0.06
36108 H 142.0695013644722 140.36854215169194 109.56063394462626 H 0.0 **** 0.06
36109 H 140.39381330796817 139.76863080191572 109.5888013616549 H 0.0 **** 0.06
36110 H 141.09204580548564 140.38925442546133 108.07346008048216 H 0.0 **** 0.06
36111 C 14.271589310902527 48.492676358078626 96.40866462299468 C 0.0 **** -0.24
36112 H 14.504894006477855 49.224171588105065 95.6349260808156 H 0.0 **** 0.06
36113 H 13.196931533799386 48.310889875110206 96.42425374451167 H 0.0 **** 0.06
36114 H 14.590459371894838 48.87626376753229 97.37790518597473 H 0.0 **** 0.06
36115 H 14.795787918031522 47.560147509179046 96.19636182488739 H 0.0 **** 0.06
36116 C 41.92419839841915 89.47557674551649 189.49991679291833 C 0.0 **** -0.24
36117 H 42.89241243043659 89.00823382425273 189.67870677654957 H 0.0 **** 0.06
36118 H 42.07050114454947 90.51681285511472 189.2103333305044 H 0.0 **** 0.06
36119 H 41.32592834586649 89.43174018092611 190.41019256964267 H 0.0 **** 0.06
36120 H 41.40768998641269 88.94486512392155 188.69972560877 H 0.0 **** 0.06
36121 C 51.45586162065166 138.91448823535939 115.65158121302841 C 0.0 **** -0.24
36122 H 51.13502211228956 139.92698282147623 115.40721386919694 H 0.0 **** 0.06
36123 H 52.29888430546896 138.63770239914376 115.01824951267702 H 0.0 **** 0.06
36124 H 50.63113134844002 138.2211026584684 115.48270216739297 H 0.0 **** 0.06
36125 H 51.75674234299379 138.8725049987088 116.69783111423425 H 0.0 **** 0.06
36126 C 196.17801674529238 193.71762590464235 61.844336533169425 C 0.0 **** -0.24
36127 H 195.1105555158979 193.59997949819396 61.66070509237754 H 0.0 **** 0.06
36128 H 196.36259108838905 194.68488094445476 62.31110592982739 H 0.0 **** 0.06
36129 H 196.71735404307123 193.6610598586487 60.8984891579685 H 0.0 **** 0.06
36130 H 196.5220376246972 192.92245991859855 62.50652713552438 H 0.0 **** 0.06
36131 C 112.81626841605606 164.33248607161562 167.3657569836339 C 0.0 **** -0.24
36132 H 112.23873279104879 163.50776113680794 167.7810918189627 H 0.0 **** 0.06
36133 H 113.63770953061692 163.93693735617668 166.76743983090063 H 0.0 **** 0.06
36134 H 113.21696429504823 164.94036648164277 168.1769042579068 H 0.0 **** 0.06
36135 H 112.17170444009582 164.94694739332334 166.73674246874157 H 0.0 **** 0.06
36136 C 162.38356782052264 93.9508249363746 197.21320673849277 C 0.0 **** -0.24
36137 H 161.643791133612 93.44232419768207 196.5945637521755 H 0.0 **** 0.06
36138 H 161.89273668994474 94.37844861906467 198.08809101273516 H 0.0 **** 0.06
36139 H 162.85425582309745 94.74609881433418 196.63493002938907 H 0.0 **** 0.06
36140 H 163.1417231472414 93.23665170819731 197.53388691234522 H 0.0 **** 0.06
36141 C 188.4235570787671 60.575501628116626 78.79560469541943 C 0.0 **** -0.24
36142 H 187.98130429239177 59.7891698221116 78.18409227465516 H 0.0 **** 0.06
36143 H 188.53060886799824 61.48196958673168 78.1990559074011 H 0.0 **** 0.06
36144 H 189.40371289899971 60.25386046053518 79.14638837573952 H 0.0 **** 0.06
36145 H 187.77938194317977 60.77685718505984 79.65079180340226 H 0.0 **** 0.06
36146 C 46.61003163503892 106.36447219312149 107.78045109134982 C 0.0 **** -0.24
36147 H 47.076294995256205 106.63927863181121 106.83422142253261 H 0.0 **** 0.06
36148 H 45.54513683017848 106.19106870970211 107.62247328012987 H 0.0 **** 0.06
36149 H 46.74439324872645 107.17236261275488 108.49968867913259 H 0.0 **** 0.06
36150 H 47.073529087582386 105.45583107933655 108.16369527404342 H 0.0 **** 0.06
36151 C 143.93283441317317 70.24957563970025 52.96939953373385 C 0.0 **** -0.24
36152 H 144.18641978018624 70.87703098166554 52.115000367254524 H 0.0 **** 0.06
36153 H 144.34080063504007 70.69329139722117 53.878528021973125 H 0.0 **** 0.06
36154 H 144.35701411843226 69.25491980087884 52.82868335416241 H 0.0 **** 0.06
36155 H 142.84916602058686 70.17373745417467 53.0565204709694 H 0.0 **** 0.06
36156 C 198.37677024652396 73.86616547696144 169.66903683256118 C 0.0 **** -0.24
36157 H 198.9855375166693 74.71968398031167 169.37162761027702 H 0.0 **** 0.06
36158 H 197.88075162680656 73.45120605190888 168.7915963004799 H 0.0 **** 0.06
36159 H 197.62674841618593 74.19001170296649 170.39164571019836 H 0.0 **** 0.06
36160 H 199.01302465530665 73.10574320484028 170.1214503269051 H 0.0 **** 0.06
36161 C 40.30434513922921 161.92046838923164 33.73016559968286 C 0.0 **** -0.24
36162 H 39.56444390687393 162.51067047543052 34.27103097203948 H 0.0 **** 0.06
36163 H 40.74958344883268 161.18880732656953 34.404872672677925 H 0.0 **** 0.06
36164 H 41.08227173372667 162.579082303536 33.34341682237047 H 0.0 **** 0.06
36165 H 39.82188871872924 161.40374955293836 32.90094421002888 H 0.0 **** 0.06
36166 C 79.85950900852745 25.24265340503075 56.84374369751377 C 0.0 **** -0.24
36167 H 79.57506057403825 26.284809196911283 56.99049207143966 H 0.0 **** 0.06
36168 H 80.92779905657434 25.128775918965744 57.02754786352615 H 0.0 **** 0.06
36169 H 79.63206900987888 24.94634631895633 55.81988001807659 H 0.0 **** 0.06
36170 H 79.30097255636426 24.613307313011433 57.536312251163125 H 0.0 **** 0.06
36171 C 108.88225209020686 91.33203110620616 144.701384108641 C 0.0 **** -0.24
36172 H 109.38368425105932 90.90495943718403 143.83374234614882 H 0.0 **** 0.06
36173 H 108.97441982966794 92.41869385182497 144.6750040210236 H 0.0 **** 0.06
36174 H 109.34327345067555 90.95066265870247 145.6123731810515 H 0.0 **** 0.06
36175 H 107.82751409046588 91.05624284368699 144.6841712013783 H 0.0 **** 0.06
36176 C 65.4668114955182 68.68691525604068 104.23879214925824 C 0.0 **** -0.24
36177 H 66.33533930199228 69.32108191654217 104.41769935247396 H 0.0 **** 0.06
36178 H 64.55621257150898 69.25708216273115 104.42027206902668 H 0.0 **** 0.06
36179 H 65.50000433338501 67.82883746112498 104.9102401507719 H 0.0 **** 0.06
36180 H 65.47869999636247 68.33991206601596 103.20486412299093 H 0.0 **** 0.06
36181 C 74.43760042222 2.724086691155321 180.2146809724522 C 0.0 **** -0.24
36182 H 75.00488650864862 2.621357293512652 179.2895643032589 H 0.0 **** 0.06
36183 H 73.38982686713089 2.909012599145221 179.97869652425845 H 0.0 **** 0.06
36184 H 74.83342622087862 3.5595302392559702 180.79186698284124 H 0.0 **** 0.06
36185 H 74.52376997038148 1.806851871566792 180.79734621090103 H 0.0 **** 0.06
36186 C 132.06149206053783 86.12183770043444 123.57836797796392 C 0.0 **** -0.24
36187 H 131.5540212875694 87.0337013010909 123.89427601240527 H 0.0 **** 0.06
36188 H 133.03447581410177 86.37499657529472 123.15571929386275 H 0.0 **** 0.06
36189 H 131.45980082211577 85.61305516982387 122.82589894148609 H 0.0 **** 0.06
36190 H 132.19848717321906 85.46665872442406 124.43867637152354 H 0.0 **** 0.06
36191 C 5.093019798790351 59.80516455960168 176.26371156670413 C 0.0 **** -0.24
36192 H 4.1233487427590205 59.392768225470604 176.54449264178214 H 0.0 **** 0.06
36193 H 4.945724383889512 60.68926955766739 175.64281857145423 H 0.0 **** 0.06
36194 H 5.657961802165403 59.058427646329164 175.7061909959997 H 0.0 **** 0.06
36195 H 5.643834431121775 60.08107253076571 177.163006133487 H 0.0 **** 0.06
36196 C 120.26817456435529 113.7288970927759 59.108267940911674 C 0.0 **** -0.24
36197 H 121.10577307967228 113.03571638250878 59.178116974356556 H 0.0 **** 0.06
36198 H 119.38953455878115 113.28346692732455 59.57452257555042 H 0.0 **** 0.06
36199 H 120.0571577685044 113.939972004455 58.06034859444486 H 0.0 **** 0.06
36200 H 120.5215166666217 114.65652663290274 59.62216765127346 H 0.0 **** 0.06
36201 C 122.61568746225498 71.0894052844439 59.1922503827285 C 0.0 **** -0.24
36202 H 122.97257486925355 71.8415126088396 59.895858678283844 H 0.0 **** 0.06
36203 H 121.57405367991458 71.28983670576972 58.943769064436935 H 0.0 **** 0.06
36204 H 122.6984146723047 70.10177698451068 59.645320156339835 H 0.0 **** 0.06
36205 H 123.22017146896326 71.1252669056529 58.28587810040926 H 0.0 **** 0.06
36206 C 55.21009010639722 198.55587853050622 176.09569676619873 C 0.0 **** -0.24
36207 H 54.54073668713282 198.11848974801433 176.83727128084337 H 0.0 **** 0.06
36208 H 54.64064496511783 199.20678511970834 175.43233071086587 H 0.0 **** 0.06
36209 H 55.67558491939836 197.75949640475807 175.51389198846755 H 0.0 **** 0.06
36210 H 55.98235822570058 199.1357327385918 176.60125955578252 H 0.0 **** 0.06
36211 C 81.41197857338975 152.20587771105926 102.85546712391294 C 0.0 **** -0.24
36212 H 81.86307549923913 151.45839818081046 102.2027485007678 H 0.0 **** 0.06
36213 H 80.57417206791587 151.76094671785842 103.39308536264383 H 0.0 **** 0.06
36214 H 81.05521175309195 153.04372916914687 102.25562875096057 H 0.0 **** 0.06
36215 H 82.15497783025927 152.56074153343167 103.56958157594258 H 0.0 **** 0.06
36216 C 78.56891888198902 135.8060842695903 100.35819374873782 C 0.0 **** -0.24
36217 H 78.94042443556992 135.60614837346134 101.36245661748654 H 0.0 **** 0.06
36218 H 78.73283055993372 134.9300019405514 99.72968804063967 H 0.0 **** 0.06
36219 H 79.1009321731533 136.65949191193144 99.93736605997898 H 0.0 **** 0.06
36220 H 77.5021882192929 136.02835233896917 100.401717362053 H 0.0 **** 0.06
36221 C 121.4540323054481 30.313214758906213 46.33574503677369 C 0.0 **** -0.24
36222 H 120.44633957554421 29.92602695968975 46.185602943288245 H 0.0 **** 0.06
36223 H 121.7257560495722 30.952102515381398 45.49473472177087 H 0.0 **** 0.06
36224 H 122.15601730146022 29.482662298482268 46.40222311429562 H 0.0 **** 0.06
36225 H 121.48637188945185 30.892515840929775 47.257950582362014 H 0.0 **** 0.06
36226 C 81.87024855225582 149.9648413981185 27.474797559949522 C 0.0 **** -0.24
36227 H 82.79417912701956 149.8362612861522 28.038859733333496 H 0.0 **** 0.06
36228 H 81.75662690002662 151.01419138108471 27.199658592742097 H 0.0 **** 0.06
36229 H 81.02442138365467 149.65638383343043 28.088810591346217 H 0.0 **** 0.06
36230 H 81.90775193972209 149.35443384775408 26.573057697299234 H 0.0 **** 0.06
36231 C 178.95470720370355 137.81067611881667 6.222660920477068 C 0.0 **** -0.24
36232 H 178.52218477515186 136.833137941133 6.009402525499041 H 0.0 **** 0.06
36233 H 178.6641752682504 138.12446225240302 7.225149889909801 H 0.0 **** 0.06
36234 H 178.59137215734984 138.5355452332563 5.494581198626463 H 0.0 **** 0.06
36235 H 180.04121250685333 137.74736343636218 6.161102680591341 H 0.0 **** 0.06
36236 C 26.115700548139955 48.20542393436301 158.90075046908493 C 0.0 **** -0.24
36237 H 25.6853643877306 47.45383657422701 158.23903005372765 H 0.0 **** 0.06
36238 H 27.052763192241088 47.83115264918206 159.31328446017326 H 0.0 **** 0.06
36239 H 25.419845740936694 48.41603162135749 159.71294390326057 H 0.0 **** 0.06
36240 H 26.304860241306642 49.11894734574446 158.33762237094055 H 0.0 **** 0.06
36241 C 180.75024275611696 46.233904966428014 5.001880129492463 C 0.0 **** -0.24
36242 H 180.63117112886033 46.96028504806216 5.805880508551155 H 0.0 **** 0.06
36243 H 179.76923732856335 45.86938855146202 4.694489739416866 H 0.0 **** 0.06
36244 H 181.3546876623999 45.39862176920576 5.355132181637799 H 0.0 **** 0.06
36245 H 181.24469923947436 46.70813545363741 4.1540081362056185 H 0.0 **** 0.06
36246 C 91.38458024993241 27.7528009577087 33.27644798450055 C 0.0 **** -0.24
36247 H 90.61415927893077 26.983290839139386 33.227311568931114 H 0.0 **** 0.06
36248 H 91.91091156400466 27.68033137065993 34.22851111373707 H 0.0 **** 0.06
36249 H 90.9221028537799 28.735690908284653 33.190525525401554 H 0.0 **** 0.06
36250 H 92.09154444060633 27.611562118742427 32.45858679975592 H 0.0 **** 0.06
36251 C 116.94551845662261 36.749394893895044 186.56654508574053 C 0.0 **** -0.24
36252 H 117.76488218190349 37.19368164813426 186.0003312790242 H 0.0 **** 0.06
36253 H 116.06804087390981 37.39242629920284 186.49917755917883 H 0.0 **** 0.06
36254 H 117.2411643595658 36.645689708286056 187.61046386280745 H 0.0 **** 0.06
36255 H 116.7099421538187 35.76871263910317 186.155441980952 H 0.0 **** 0.06
36256 C 99.90247787181261 64.34368527400434 81.4880416602283 C 0.0 **** -0.24
36257 H 99.4652714711776 63.53379213048832 80.90409017158308 H 0.0 **** 0.06
36258 H 99.70886774113683 64.17336280250304 82.54725318881242 H 0.0 **** 0.06
36259 H 99.45589964510867 65.29135709165114 81.18529305345402 H 0.0 **** 0.06
36260 H 100.97802820493871 64.37780177370405 81.31517690863149 H 0.0 **** 0.06
36261 C 61.83547783465582 142.78247108306488 89.80065150772532 C 0.0 **** -0.24
36262 H 62.90729604793512 142.60925608164035 89.8867788699207 H 0.0 **** 0.06
36263 H 61.47418454956352 143.2835372409743 90.69876706390193 H 0.0 **** 0.06
36264 H 61.32152726500328 141.82828998806724 89.6849107193822 H 0.0 **** 0.06
36265 H 61.63760338320242 143.40918082115587 88.93010838764675 H 0.0 **** 0.06
36266 C 148.30196152450216 79.26448887996517 119.34959135162191 C 0.0 **** -0.24
36267 H 147.58940376965035 79.16319113993998 118.53029902235872 H 0.0 **** 0.06
36268 H 148.1987608648401 78.41836030275525 120.0283746162439 H 0.0 **** 0.06
36269 H 148.10404475704632 80.19010789231291 119.88968862955261 H 0.0 **** 0.06
36270 H 149.31586934161822 79.28753027629645 118.94815300123466 H 0.0 **** 0.06
36271 C 184.31660208747923 123.61742575462699 194.58454334542972 C 0.0 **** -0.24
36272 H 184.9569806409773 123.39099660701237 193.73280347677598 H 0.0 **** 0.06
36273 H 184.92876783101818 123.72991902140726 195.47958024865875 H 0.0 **** 0.06
36274 H 183.60585469037483 122.80381341934051 194.73069325485315 H 0.0 **** 0.06
36275 H 183.7751662575331 124.54363718468173 194.39538393353638 H 0.0 **** 0.06
36276 C 99.88940143374836 168.96730561760072 121.13108550991365 C 0.0 **** -0.24
36277 H 100.16383246511828 168.00590836768563 121.56809886522771 H 0.0 **** 0.06
36278 H 99.03356820373264 169.3778023197362 121.66656810866883 H 0.0 **** 0.06
36279 H 99.6295177131939 168.82655131764574 120.08176936692081 H 0.0 **** 0.06
36280 H 100.73144018963393 169.65540040032914 121.20877717844778 H 0.0 **** 0.06
36281 C 136.93657035371018 132.4307112786935 151.45145092110243 C 0.0 **** -0.24
36282 H 137.36249962119723 132.63699810937032 152.43383613344255 H 0.0 **** 0.06
36283 H 137.3747405685014 133.10768777051558 150.71785744905145 H 0.0 **** 0.06
36284 H 135.85731261025782 132.5778499763301 151.48474652706017 H 0.0 **** 0.06
36285 H 137.15432432864782 131.39950385155177 151.1717329356618 H 0.0 **** 0.06
36286 C 194.32637690946575 20.6371940060872 99.46321682140291 C 0.0 **** -0.24
36287 H 193.4165662102093 21.03150019158673 99.91662041774924 H 0.0 **** 0.06
36288 H 194.95414584392142 20.19387345467841 100.23634342252217 H 0.0 **** 0.06
36289 H 194.8679411198477 21.446500618828466 98.97382670319834 H 0.0 **** 0.06
36290 H 194.06522750155483 19.877453232482992 98.72710092831798 H 0.0 **** 0.06
36291 C 192.89621274326873 42.80038347194869 150.49652255390203 C 0.0 **** -0.24
36292 H 192.01588670068224 42.223178526384004 150.778882584365 H 0.0 **** 0.06
36293 H 193.42625976956197 43.11745587863106 151.39401288631677 H 0.0 **** 0.06
36294 H 192.58699905886616 43.67743926935543 149.9264473437729 H 0.0 **** 0.06
36295 H 193.55379052458875 42.18297908719441 149.88356905190122 H 0.0 **** 0.06
36296 C 73.51201925046796 49.656433903882885 187.08324782172176 C 0.0 **** -0.24
36297 H 72.78606167541352 49.61663243006879 186.27077435297792 H 0.0 **** 0.06
36298 H 74.29138093991507 48.91324253138572 186.9099254070078 H 0.0 **** 0.06
36299 H 73.01228996098561 49.44654752898441 188.0288524039351 H 0.0 **** 0.06
36300 H 73.95882417792507 50.6499765279799 187.12113047314963 H 0.0 **** 0.06
36301 C 86.9929379973621 47.15139835357911 13.193823719655882 C 0.0 **** -0.24
36302 H 86.50040308729785 46.89351112466727 12.256759046287073 H 0.0 **** 0.06
36303 H 87.78657057652345 47.873899205996224 13.000615144814844 H 0.0 **** 0.06
36304 H 87.42044067123271 46.25302657148944 13.640295790837143 H 0.0 **** 0.06
36305 H 86.26491945294453 47.58521913434248 13.87978306650939 H 0.0 **** 0.06
36306 C 167.73742690129694 128.6400597154278 75.27113079130169 C 0.0 **** -0.24
36307 H 166.73927802502047 128.8754910728734 75.64132883777523 H 0.0 **** 0.06
36308 H 168.47435581482713 129.2356153687017 75.81063050205876 H 0.0 **** 0.06
36309 H 167.793860984324 128.8693004260113 74.20693176079243 H 0.0 **** 0.06
36310 H 167.9414078429818 127.58124934413547 75.4262179472978 H 0.0 **** 0.06
36311 C 6.342373134105387 44.2947160220088 103.24307770198914 C 0.0 **** -0.24
36312 H 6.053735597208039 43.548035064324836 102.50213867648739 H 0.0 **** 0.06
36313 H 5.449794005084762 44.68307467711509 103.73324270364367 H 0.0 **** 0.06
36314 H 6.870278834717261 45.110351092140036 102.74950534233034 H 0.0 **** 0.06
36315 H 6.994987417301161 43.835860209600014 103.98515829213596 H 0.0 **** 0.06
36316 C 85.20752210599179 138.44183801619386 86.39226304355341 C 0.0 **** -0.24
36317 H 84.46604894000626 139.2367158955684 86.47572796828584 H 0.0 **** 0.06
36318 H 85.40817487454945 138.02720256062423 87.3806139972462 H 0.0 **** 0.06
36319 H 86.12866719184771 138.84855652987846 85.97454606934647 H 0.0 **** 0.06
36320 H 84.82695199373123 137.65666746967906 85.73948109619991 H 0.0 **** 0.06
36321 C 1.4230206290911127 61.914221440602674 69.0989785040399 C 0.0 **** -0.24
36322 H 2.331611853183148 61.411949819401485 68.76639032708175 H 0.0 **** 0.06
36323 H 1.6508867434555938 62.9527595887361 69.34217855373424 H 0.0 **** 0.06
36324 H 1.0327909471059726 61.41112988859865 69.98329708506617 H 0.0 **** 0.06
36325 H 0.6788175579447113 61.88188704457582 68.30360692732879 H 0.0 **** 0.06
36326 C 10.940377109877971 104.5732448504325 64.00911263089213 C 0.0 **** -0.24
36327 H 10.385820605516301 105.4625115175628 63.71032918142916 H 0.0 **** 0.06
36328 H 10.240068732459065 103.79558449474177 64.31527639066162 H 0.0 **** 0.06
36329 H 11.59831309904365 104.8191622634115 64.84264280013602 H 0.0 **** 0.06
36330 H 11.535489311403836 104.21683534775411 63.16887909409019 H 0.0 **** 0.06
36331 C 33.734742946279084 104.1097733688041 159.7892170257082 C 0.0 **** -0.24
36332 H 34.81058630896183 104.27250844362891 159.7220229489001 H 0.0 **** 0.06
36333 H 33.406591103826315 103.50633801035133 158.94246745591767 H 0.0 **** 0.06
36334 H 33.22031171261352 105.07050426453827 159.77336364563402 H 0.0 **** 0.06
36335 H 33.50342480858694 103.58854363061016 160.71812507314382 H 0.0 **** 0.06
36336 C 117.14901519734406 71.0140817913778 68.72334815613661 C 0.0 **** -0.24
36337 H 116.9999610957401 71.46604024717723 69.70433038158946 H 0.0 **** 0.06
36338 H 116.50113486361073 71.50301571451476 67.99594292489134 H 0.0 **** 0.06
36339 H 116.9040454663907 69.95233165285501 68.77202249207414 H 0.0 **** 0.06
36340 H 118.18995936814702 71.132693136745 68.42283815490045 H 0.0 **** 0.06
36341 C 151.16074353377036 62.97071282790921 80.27832275548002 C 0.0 **** -0.24
36342 H 151.8811997362982 62.287171464380776 80.72675305242049 H 0.0 **** 0.06
36343 H 151.6240846235953 63.9487076989833 80.14283556227758 H 0.0 **** 0.06
36344 H 150.2940649713212 63.06568041001384 80.93202000683058 H 0.0 **** 0.06
36345 H 150.84464737221924 62.580904158734654 79.30973195322198 H 0.0 **** 0.06
36346 C 29.216492052105608 161.91461902229713 8.293993246203001 C 0.0 **** -0.24
36347 H 28.615818540595754 162.545986344325 7.639349589553262 H 0.0 **** 0.06
36348 H 28.875533340958413 162.02933644649312 9.322661677110489 H 0.0 **** 0.06
36349 H 30.26297742633811 162.21027266221034 8.22221608932557 H 0.0 **** 0.06
36350 H 29.111886943502768 160.87257595145468 7.990387068869097 H 0.0 **** 0.06
36351 C 143.44354881516148 143.38345704097583 147.29762863215402 C 0.0 **** -0.24
36352 H 144.4685787126991 143.3055365035622 147.65806829489762 H 0.0 **** 0.06
36353 H 142.97769982796268 142.39811571860022 147.31054689024 H 0.0 **** 0.06
36354 H 143.44570691134382 143.77216540415765 146.27854185149317 H 0.0 **** 0.06
36355 H 142.88214405332823 144.05942218929644 147.9433030960918 H 0.0 **** 0.06
36356 C 174.4023476607788 94.87843929551144 160.66448984510188 C 0.0 **** -0.24
36357 H 173.49872760988416 95.2092814145405 160.15209938122413 H 0.0 **** 0.06
36358 H 174.8700353421577 94.07600008429958 160.09394429158485 H 0.0 **** 0.06
36359 H 174.1424894769521 94.51504567697444 161.65889493940065 H 0.0 **** 0.06
36360 H 175.09611443709068 95.71480902656123 160.75307329591422 H 0.0 **** 0.06
36361 C 178.86667402987183 67.41932344334401 133.86768830094513 C 0.0 **** -0.24
36362 H 178.44741907383226 68.4021561150297 133.65219838211317 H 0.0 **** 0.06
36363 H 179.10903666477185 67.35304773463639 134.92845197461008 H 0.0 **** 0.06
36364 H 179.7723036276655 67.27322732778649 133.2782167935323 H 0.0 **** 0.06
36365 H 178.1389224604442 66.64983324050307 133.61159232984994 H 0.0 **** 0.06
36366 C 35.03889207729944 164.44834390766545 161.65487983491204 C 0.0 **** -0.24
36367 H 35.76161401677355 163.7457995068636 162.06834569609478 H 0.0 **** 0.06
36368 H 35.4012095543757 165.46762927505398 161.79617779285397 H 0.0 **** 0.06
36369 H 34.08291815035378 164.32882635815076 162.1640449102447 H 0.0 **** 0.06
36370 H 34.91069931411519 164.25265544762885 160.59001160986247 H 0.0 **** 0.06
36371 C 102.90466595782294 11.97359366174905 141.57920331189604 C 0.0 **** -0.24
36372 H 102.91281368855692 11.165978547376312 140.84767675083782 H 0.0 **** 0.06
36373 H 103.93001368825185 12.234305056500943 141.84477311469288 H 0.0 **** 0.06
36374 H 102.36907269855541 11.648150157522792 142.47176933052083 H 0.0 **** 0.06
36375 H 102.40585989289764 12.844193063081406 141.15405291334253 H 0.0 **** 0.06
36376 C 149.486298377532 76.39532941540222 52.540541814186724 C 0.0 **** -0.24
36377 H 149.90856448653105 75.4727824434492 52.143045795354766 H 0.0 **** 0.06
36378 H 148.55890903620926 76.17263250568908 53.068637248346306 H 0.0 **** 0.06
36379 H 149.2814369002954 77.08320631008257 51.72048765434576 H 0.0 **** 0.06
36380 H 150.19628308709227 76.852696402388 53.229996558700236 H 0.0 **** 0.06
36381 C 154.1014727402798 175.4166697884737 35.037108668186164 C 0.0 **** -0.24
36382 H 153.88208842587753 176.4822493077791 34.97620320376609 H 0.0 **** 0.06
36383 H 155.1819792270855 175.2679329407818 35.04365069476802 H 0.0 **** 0.06
36384 H 153.66885374041163 174.90660651817856 34.175731300616576 H 0.0 **** 0.06
36385 H 153.67296956774447 175.0098903871554 35.952849473593915 H 0.0 **** 0.06
36386 C 34.09369925820096 189.72518448377758 73.45483249738874 C 0.0 **** -0.24
36387 H 33.1877464895467 189.6647345558178 72.8525194145991 H 0.0 **** 0.06
36388 H 34.94993303543416 189.90935928752026 72.80468860700046 H 0.0 **** 0.06
36389 H 34.23947332471545 188.7860608211878 73.98899011404109 H 0.0 **** 0.06
36390 H 33.999503069972036 190.54088452822407 74.17192607966365 H 0.0 **** 0.06
36391 C 197.87899151586166 159.6871254852225 58.71840109780112 C 0.0 **** -0.24
36392 H 198.33153238689172 158.69788595910836 58.78627303626462 H 0.0 **** 0.06
36393 H 197.05394028608654 159.6597385609386 58.005199758427864 H 0.0 **** 0.06
36394 H 198.6259903345577 160.40582125453795 58.3826395450472 H 0.0 **** 0.06
36395 H 197.50362510137538 159.98246622057604 59.698258531499505 H 0.0 **** 0.06
36396 C 37.28228871809915 55.47322424917462 174.97664834693148 C 0.0 **** -0.24
36397 H 37.453394499727494 56.45833681696439 174.5404250509556 H 0.0 **** 0.06
36398 H 38.160923863652954 55.17133299259899 175.54634793772266 H 0.0 **** 0.06
36399 H 37.09864611644599 54.75096551222356 174.1807511111502 H 0.0 **** 0.06
36400 H 36.416991953029395 55.51371951874802 175.63757519945875 H 0.0 **** 0.06
36401 C 130.419264772397 113.46802810591777 1.8874326609129284 C 0.0 **** -0.24
36402 H 130.6665951944767 114.2642136431111 2.588993718169597 H 0.0 **** 0.06
36403 H 129.38975871418228 113.5904044997043 1.547154786666006 H 0.0 **** 0.06
36404 H 130.52639526029589 112.50180426663326 2.380929615469981 H 0.0 **** 0.06
36405 H 131.09228476203634 113.51561314451192 1.03170757266615 H 0.0 **** 0.06
36406 C 156.67072565029721 12.891070119632047 74.46795869595269 C 0.0 **** -0.24
36407 H 157.1223328073167 12.569725719590764 73.52936430213538 H 0.0 **** 0.06
36408 H 156.8958956865231 13.943800887770152 74.63660640997989 H 0.0 **** 0.06
36409 H 157.0738756440111 12.29529643887733 75.28684543117959 H 0.0 **** 0.06
36410 H 155.59069394188143 12.753630152863366 74.41664160039988 H 0.0 **** 0.06
36411 C 166.23459202292912 156.7061688410726 22.089873130052453 C 0.0 **** -0.24
36412 H 166.35317957070404 156.8493235389318 23.164124692070317 H 0.0 **** 0.06
36413 H 165.37655774249896 157.28084793454406 21.74078603401091 H 0.0 **** 0.06
36414 H 166.07484263904726 155.64926778968857 21.880753678284805 H 0.0 **** 0.06
36415 H 167.13369240215494 157.0468086293057 21.576746716069067 H 0.0 **** 0.06
36416 C 85.64048610852132 121.12501306472697 40.35191673515453 C 0.0 **** -0.24
36417 H 85.84047821529145 120.24793242152802 39.73782606795123 H 0.0 **** 0.06
36418 H 84.76061211339248 121.64248577451204 39.969973776169695 H 0.0 **** 0.06
36419 H 86.49935050472376 121.79537097635927 40.317859380151845 H 0.0 **** 0.06
36420 H 85.46155721844607 120.81547140879852 41.381274827805214 H 0.0 **** 0.06
36421 C 43.73174080678663 165.80281893874715 14.724063503829882 C 0.0 **** -0.24
36422 H 44.35259612891133 166.6975009302499 14.761325658713716 H 0.0 **** 0.06
36423 H 44.19921487803698 165.06221166028246 14.073367273172131 H 0.0 **** 0.06
36424 H 42.74728613204981 166.06017284877277 14.332606415599628 H 0.0 **** 0.06
36425 H 43.627582683424535 165.39043503273646 15.727951094474975 H 0.0 **** 0.06
36426 C 105.51869944611963 131.69838168763582 28.17802000104774 C 0.0 **** -0.24
36427 H 106.56259956030772 131.60437841217754 28.479402890570356 H 0.0 **** 0.06
36428 H 104.99322578616056 132.33637416690715 28.88867372349044 H 0.0 **** 0.06
36429 H 105.05507889007845 130.71188990539034 28.161969092920558 H 0.0 **** 0.06
36430 H 105.46671586838931 132.1410146182169 27.18427434108716 H 0.0 **** 0.06
36431 C 47.44598593035836 27.81053287683436 33.240825724883564 C 0.0 **** -0.24
36432 H 47.37782987988966 28.38907511967642 34.16219444159694 H 0.0 **** 0.06
36433 H 46.454890921777306 27.448611356995542 32.96566359349262 H 0.0 **** 0.06
36434 H 48.113490841232945 26.962354357305912 33.39346608292226 H 0.0 **** 0.06
36435 H 47.83682578836934 28.441634941900688 32.44296416987697 H 0.0 **** 0.06
36436 C 65.70252966089521 106.4684925275065 68.72118488322758 C 0.0 **** -0.24
36437 H 66.23952922821786 107.09295911962684 68.0068371852949 H 0.0 **** 0.06
36438 H 66.41267093123061 106.02306353297075 69.41793740086189 H 0.0 **** 0.06
36439 H 65.17276616566102 105.67946585256038 68.18694782076875 H 0.0 **** 0.06
36440 H 64.98644928975182 107.0797227427129 69.27135052103802 H 0.0 **** 0.06
36441 C 26.19430806139775 110.74361264760273 91.55559562084193 C 0.0 **** -0.24
36442 H 27.25809028493893 110.79139347548673 91.7903445837718 H 0.0 **** 0.06
36443 H 25.864522945981605 111.70750221053149 91.16855898117899 H 0.0 **** 0.06
36444 H 25.63426256647807 110.50225006734885 92.45840003275802 H 0.0 **** 0.06
36445 H 26.023226171508952 109.9719764374403 90.80509497127235 H 0.0 **** 0.06
36446 C 145.7116594211221 38.32350907986148 55.80541503348209 C 0.0 **** -0.24
36447 H 145.3171023840353 38.68131957714789 56.756850839422256 H 0.0 **** 0.06
36448 H 145.0135144835757 38.57238116236046 55.00617288262764 H 0.0 **** 0.06
36449 H 145.84454219063215 37.24243121545531 55.85085191879824 H 0.0 **** 0.06
36450 H 146.67248119753992 38.800058239020885 55.6096163964131 H 0.0 **** 0.06
36451 C 99.35530653465304 186.10447223391714 77.87435298218296 C 0.0 **** -0.24
36452 H 98.76920951123992 187.01709151840993 77.76726891420206 H 0.0 **** 0.06
36453 H 100.33956530221957 186.25161674552052 77.42834190572539 H 0.0 **** 0.06
36454 H 98.84627384514246 185.2840194579769 77.36895646782295 H 0.0 **** 0.06
36455 H 99.46730397473357 185.86730302750163 78.93246546656269 H 0.0 **** 0.06
36456 C 142.0418974674027 110.7656423578677 69.73090135168329 C 0.0 **** -0.24
36457 H 142.56103578105285 111.72297391774782 69.78620414102662 H 0.0 **** 0.06
36458 H 142.694011903578 110.02611977991222 69.26602738547672 H 0.0 **** 0.06
36459 H 141.13596126093472 110.8787998336087 69.13475482991706 H 0.0 **** 0.06
36460 H 141.77831045125018 110.43783235656679 70.73559639616889 H 0.0 **** 0.06
36461 C 180.7417289086074 53.16887873527452 84.88485482746955 C 0.0 **** -0.24
36462 H 180.06992179593766 53.9440275001935 84.51512615025865 H 0.0 **** 0.06
36463 H 181.77068526243855 53.436112729385854 84.64436887278913 H 0.0 **** 0.06
36464 H 180.4921992422188 52.21769708358889 84.41472921462184 H 0.0 **** 0.06
36465 H 180.63181596949048 53.079729034656395 85.96592474788679 H 0.0 **** 0.06
36466 C 49.14549407737613 188.4921713837369 180.23870192151665 C 0.0 **** -0.24
36467 H 49.83598655953752 189.21969703843786 179.81222187149888 H 0.0 **** 0.06
36468 H 49.16430564141854 187.579528657372 179.64144728396406 H 0.0 **** 0.06
36469 H 48.1369939201911 188.90556599029185 180.23859395757225 H 0.0 **** 0.06
36470 H 49.443850528156034 188.26332323052335 181.26155998747927 H 0.0 **** 0.06
36471 C 80.51083147436427 198.47054315114366 80.88273694491434 C 0.0 **** -0.24
36472 H 79.91776304978839 198.7735621940384 80.02027189026148 H 0.0 **** 0.06
36473 H 81.56643713771274 198.4486673872285 80.60787176885574 H 0.0 **** 0.06
36474 H 80.1994330243696 197.4770326738763 81.20730842676136 H 0.0 **** 0.06
36475 H 80.36124806563899 199.1811512130934 81.69479829723744 H 0.0 **** 0.06
36476 C 45.41264563976563 196.88566193509757 92.56321507965794 C 0.0 **** -0.24
36477 H 46.16740568107606 197.6460995965161 92.36454573063165 H 0.0 **** 0.06
36478 H 44.71778498195492 197.25167289484503 93.31936608031552 H 0.0 **** 0.06
36479 H 45.897180864869554 195.9784583479082 92.9240085751455 H 0.0 **** 0.06
36480 H 44.86732136668732 196.66599148136635 91.64477399046612 H 0.0 **** 0.06
36481 C 61.892238844699435 112.46283991990646 192.56685571898987 C 0.0 **** -0.24
36482 H 62.77371243600787 111.95192190665705 192.95261827126228 H 0.0 **** 0.06
36483 H 61.434625768164366 113.0506185149801 193.36255746979376 H 0.0 **** 0.06
36484 H 61.17698826092705 111.72712689991488 192.2005913154763 H 0.0 **** 0.06
36485 H 62.1850357101529 113.12313345872093 191.7494322306137 H 0.0 **** 0.06
36486 C 4.40037672881985 19.29546078555279 166.3640478378689 C 0.0 **** -0.24
36487 H 5.379280718522637 18.87941184954883 166.12752738080985 H 0.0 **** 0.06
36488 H 3.9035009853091935 18.65823470747827 167.09618793516034 H 0.0 **** 0.06
36489 H 3.7985203613233978 19.344199136012065 165.4571216296044 H 0.0 **** 0.06
36490 H 4.520584967240495 20.29713302968878 166.7761611317232 H 0.0 **** 0.06
36491 C 156.81110898270566 162.69575128321043 109.07036133208575 C 0.0 **** -0.24
36492 H 157.5178616119999 163.45889073338427 108.74470264682202 H 0.0 **** 0.06
36493 H 155.87835609535497 162.8032458357486 108.51535801022325 H 0.0 **** 0.06
36494 H 156.61595345367977 162.811685439231 110.13563558555609 H 0.0 **** 0.06
36495 H 157.23312434487494 161.70773613079322 108.88326563360849 H 0.0 **** 0.06
36496 C 174.91871560997254 53.99884408228915 126.05274422153681 C 0.0 **** -0.24
36497 H 174.85632422494723 53.3314519633343 126.91272141511232 H 0.0 **** 0.06
36498 H 175.02322587614344 55.027378804366805 126.39945105985987 H 0.0 **** 0.06
36499 H 174.01194328572612 53.90672556684228 125.45543709755509 H 0.0 **** 0.06
36500 H 175.78305777916015 53.73037526805379 125.44629903231515 H 0.0 **** 0.06
36501 C 85.31146399494082 55.801536508637525 179.2006236549003 C 0.0 **** -0.24
36502 H 84.65814282361293 55.89386015126206 180.0677980652958 H 0.0 **** 0.06
36503 H 86.32278692927832 55.566827812347526 179.53183419374267 H 0.0 **** 0.06
36504 H 85.31764142424834 56.74121186645726 178.64903800813332 H 0.0 **** 0.06
36505 H 84.94649641057958 55.00308258249407 178.5536679392424 H 0.0 **** 0.06
36506 C 190.71655400827063 149.0020064312706 63.08347706971563 C 0.0 **** -0.24
36507 H 189.93855223274667 149.32932304723775 62.39364828188799 H 0.0 **** 0.06
36508 H 190.38621421985346 149.1676140535963 64.10878746938516 H 0.0 **** 0.06
36509 H 191.62750872728793 149.57158228270472 62.89877585835052 H 0.0 **** 0.06
36510 H 190.9141679806572 147.9411666643435 62.93121617965781 H 0.0 **** 0.06
36511 C 99.11062055268164 83.68295006146286 4.430371132598225 C 0.0 **** -0.24
36512 H 99.50289820190943 84.25133374874102 3.5866135081260495 H 0.0 **** 0.06
36513 H 98.12452702286188 83.29379689455209 4.179010790267029 H 0.0 **** 0.06
36514 H 99.03304564889268 84.33366800289383 5.301545617820125 H 0.0 **** 0.06
36515 H 99.78261327932856 82.85513474330835 4.654610370474529 H 0.0 **** 0.06
36516 C 7.966400334864659 83.51655860848399 78.41139200768643 C 0.0 **** -0.24
36517 H 8.784527279495137 83.61112117591918 77.69659838050825 H 0.0 **** 0.06
36518 H 8.35354261037645 83.14231486357545 79.35876423980037 H 0.0 **** 0.06
36519 H 7.2232942759148955 82.82157539045858 78.02107241763363 H 0.0 **** 0.06
36520 H 7.5052120404372715 84.49182969688528 78.56618650766339 H 0.0 **** 0.06
36521 C 139.55537448523935 193.66785967094955 149.65811201579322 C 0.0 **** -0.24
36522 H 140.0157166611661 194.65385434563902 149.71568153914964 H 0.0 **** 0.06
36523 H 140.32658073163077 192.917471489553 149.48080377984562 H 0.0 **** 0.06
36524 H 138.83679134641525 193.65001962545426 148.8394456236614 H 0.0 **** 0.06
36525 H 139.04479871040857 193.4505621193465 150.59625157502785 H 0.0 **** 0.06
36526 C 62.39451176285996 48.93603653503584 138.00938576870516 C 0.0 **** -0.24
36527 H 62.81710493522701 49.372386282364744 138.9140904594676 H 0.0 **** 0.06
36528 H 62.19352441373201 49.7257432908617 137.2860303997741 H 0.0 **** 0.06
36529 H 61.46612830108501 48.42110492011305 138.25438421763596 H 0.0 **** 0.06
36530 H 63.10261933037617 48.224575638520406 137.58480392416564 H 0.0 **** 0.06
36531 C 96.4724393235418 108.97752436813948 175.90306752894088 C 0.0 **** -0.24
36532 H 96.71027857813945 109.2629823930672 174.8781183118943 H 0.0 **** 0.06
36533 H 96.92627855930365 108.01086845237305 176.12471815862025 H 0.0 **** 0.06
36534 H 95.39128740901171 108.90663924197167 176.018330269758 H 0.0 **** 0.06
36535 H 96.863225709478 109.72815136247809 176.58883262144366 H 0.0 **** 0.06
36536 C 152.81955141826728 124.2590775042174 47.483373977413976 C 0.0 **** -0.24
36537 H 153.52635082024048 123.88972202443787 48.2264862296864 H 0.0 **** 0.06
36538 H 153.34349476438166 124.88970063463034 46.765554706254704 H 0.0 **** 0.06
36539 H 152.04289015059737 124.84095064617284 47.979538870574174 H 0.0 **** 0.06
36540 H 152.36565201943108 123.41526500349906 46.964264673809566 H 0.0 **** 0.06
36541 C 19.77442758779962 59.13721011535303 148.5798968738777 C 0.0 **** -0.24
36542 H 19.40529719926208 58.52954464634156 149.40501448860542 H 0.0 **** 0.06
36543 H 20.505855696478335 59.85375591491409 148.9550045164722 H 0.0 **** 0.06
36544 H 18.942348388203897 59.67233767074394 148.12210064021397 H 0.0 **** 0.06
36545 H 20.245063564483118 58.493855849097685 147.8365498856085 H 0.0 **** 0.06
36546 C 92.9019287566652 47.12891101642106 50.7056721969216 C 0.0 **** -0.24
36547 H 92.56548832024004 48.02610110985523 51.225310968290415 H 0.0 **** 0.06
36548 H 92.25426117137738 46.29194112770469 50.969959586409686 H 0.0 **** 0.06
36549 H 93.92671375926085 46.90204690940993 50.99766882712025 H 0.0 **** 0.06
36550 H 92.85894049799538 47.295213679072134 49.62901341660174 H 0.0 **** 0.06
36551 C 140.47053120888384 139.48214751314808 84.71441531547447 C 0.0 **** -0.24
36552 H 141.05150992062477 139.26706432451184 85.61153830154831 H 0.0 **** 0.06
36553 H 139.67846427769334 140.19180245160194 84.95564456389974 H 0.0 **** 0.06
36554 H 140.02970785607118 138.55939131781577 84.33789513479735 H 0.0 **** 0.06
36555 H 141.12258200750836 139.91013096782336 83.95355292155125 H 0.0 **** 0.06
36556 C 40.30883698525025 165.7584589467212 168.99097769098557 C 0.0 **** -0.24
36557 H 40.571711324579496 166.48170570026156 168.21939562462404 H 0.0 **** 0.06
36558 H 40.002802654237314 164.82265328184036 168.52186953999674 H 0.0 **** 0.06
36559 H 39.48758801568965 166.14998172425922 169.59101995638423 H 0.0 **** 0.06
36560 H 41.17254330637593 165.5795456024045 169.63039935274443 H 0.0 **** 0.06
36561 C 114.58680494475453 138.5279996726279 1.2485476669621391 C 0.0 **** -0.24
36562 H 113.68953970700889 137.95096146021766 1.0267444691364744 H 0.0 **** 0.06
36563 H 115.14786830587235 138.03592665955009 2.0434588269560834 H 0.0 **** 0.06
36564 H 114.30375776318076 139.52999937279282 1.5711256851151063 H 0.0 **** 0.06
36565 H 115.20496479351135 138.5954714346619 0.35368866640538954 H 0.0 **** 0.06
36566 C 134.9984733051979 80.7690729559076 185.1305235750129 C 0.0 **** -0.24
36567 H 134.2106151530181 80.3147779516512 185.73099859884354 H 0.0 **** 0.06
36568 H 134.61633748625988 81.67236048954229 184.65416179386227 H 0.0 **** 0.06
36569 H 135.32527533437906 80.06434499981503 184.36663117451212 H 0.0 **** 0.06
36570 H 135.84213428803992 81.02526216620345 185.77266370949383 H 0.0 **** 0.06
36571 C 65.79363378647528 98.12154284433143 160.84884260194897 C 0.0 **** -0.24
36572 H 66.09028580448924 99.16389694770288 160.97270633125405 H 0.0 **** 0.06
36573 H 66.6298760466595 97.55237695129313 160.44042517694558 H 0.0 **** 0.06
36574 H 64.94574388212497 98.06437211958024 160.1660506080719 H 0.0 **** 0.06
36575 H 65.51049741314958 97.7078194298881 161.81668629374457 H 0.0 **** 0.06
36576 C 142.14575224808738 130.49846651921058 22.97796898409773 C 0.0 **** -0.24
36577 H 142.87785312468625 130.3930693017563 23.778337902810975 H 0.0 **** 0.06
36578 H 141.7572475493191 129.51553457931593 22.709397565098072 H 0.0 **** 0.06
36579 H 142.62201919628947 130.9515364671449 22.10838914168714 H 0.0 **** 0.06
36580 H 141.32635072479454 131.1329705052919 23.31621671076998 H 0.0 **** 0.06
36581 C 116.07418377381194 57.755020286792245 50.68491570346481 C 0.0 **** -0.24
36582 H 116.98192501931709 57.832820863810014 51.28347362751083 H 0.0 **** 0.06
36583 H 116.23999176518754 57.059571166471585 49.86300032900297 H 0.0 **** 0.06
36584 H 115.81750934874356 58.73589108246773 50.2858650986517 H 0.0 **** 0.06
36585 H 115.2573120510445 57.3923721997424 51.309484877090085 H 0.0 **** 0.06
36586 C 55.77909666431776 170.668434930018 187.73466591040133 C 0.0 **** -0.24
36587 H 55.42965284038232 170.67996397666798 188.76692351913675 H 0.0 **** 0.06
36588 H 55.569612450931146 171.63194568649936 187.26997776731687 H 0.0 **** 0.06
36589 H 55.26464092100126 169.8798147234599 187.18619246041357 H 0.0 **** 0.06
36590 H 56.85327627686321 170.4826668892039 187.7172851828003 H 0.0 **** 0.06
36591 C 85.48329767494735 155.04631884141105 108.99375667367278 C 0.0 **** -0.24
36592 H 86.23753832739266 154.42314212449458 109.47427566451094 H 0.0 **** 0.06
36593 H 84.52249849421929 154.53064888710276 109.0090583216878 H 0.0 **** 0.06
36594 H 85.7755132431599 155.2415952907703 107.96269711184999 H 0.0 **** 0.06
36595 H 85.39707164070748 155.99055846883795 109.53249251281076 H 0.0 **** 0.06
36596 C 162.48749935139193 142.2232845558206 139.45566822671907 C 0.0 **** -0.24
36597 H 163.2746922561928 142.1479354370684 140.20664129507242 H 0.0 **** 0.06
36598 H 162.88947235486123 141.950233077763 138.47972904427192 H 0.0 **** 0.06
36599 H 162.11392200738828 143.24677671944912 139.42222508386655 H 0.0 **** 0.06
36600 H 161.67239461677968 141.5471906404538 139.71540461256058 H 0.0 **** 0.06
36601 C 41.85219688218383 106.28042325860213 55.747570870068614 C 0.0 **** -0.24
36602 H 42.04265052300292 107.35379973477188 55.72176283872736 H 0.0 **** 0.06
36603 H 41.03082585674437 106.0742851479547 56.43370015543019 H 0.0 **** 0.06
36604 H 42.74796348065675 105.76104797744244 56.086975030794235 H 0.0 **** 0.06
36605 H 41.58776754672881 105.9344623731082 54.74829869704939 H 0.0 **** 0.06
36606 C 18.96033656231863 97.95194900064257 31.97447038830063 C 0.0 **** -0.24
36607 H 18.794657987184237 96.95313399200776 32.37946408230772 H 0.0 **** 0.06
36608 H 18.02860036900522 98.33523600936383 31.559815841618104 H 0.0 **** 0.06
36609 H 19.71550741549143 97.90416404686661 31.189699549031275 H 0.0 **** 0.06
36610 H 19.30398791779446 98.61283476739257 32.7692599190018 H 0.0 **** 0.06
36611 C 3.2995484713973156 70.92825420171577 189.70515182377582 C 0.0 **** -0.24
36612 H 3.4860282191339778 71.99295839417763 189.84302840972873 H 0.0 **** 0.06
36613 H 3.503179613559894 70.40052871845221 190.63819571721592 H 0.0 **** 0.06
36614 H 3.950688007846246 70.54398479423931 188.92125771971882 H 0.0 **** 0.06
36615 H 2.2584854356228234 70.77594591953049 189.42109264621794 H 0.0 **** 0.06
36616 C 40.009079790951034 35.908991962542984 14.132331090161415 C 0.0 **** -0.24
36617 H 40.628090970150566 36.52569901716444 13.480001210927583 H 0.0 **** 0.06
36618 H 40.571479947138556 35.65259099853492 15.0295630946041 H 0.0 **** 0.06
36619 H 39.72559226849643 34.99642733827511 13.606597940695195 H 0.0 **** 0.06
36620 H 39.11236976436237 36.46235574567618 14.40995190767785 H 0.0 **** 0.06
36621 C 162.7990095986761 97.35944427782519 58.905608781443505 C 0.0 **** -0.24
36622 H 162.6841691975689 96.27694446438673 58.9648922302338 H 0.0 **** 0.06
36623 H 163.39283217152644 97.61411475397117 58.026712642739085 H 0.0 **** 0.06
36624 H 163.3033950931985 97.72004767140643 59.80163284943393 H 0.0 **** 0.06
36625 H 161.81680867506213 97.82483094457413 58.828691557615 H 0.0 **** 0.06
36626 C 26.181293737109627 119.71401587518903 152.03616253318665 C 0.0 **** -0.24
36627 H 26.621146121472805 119.42253627773604 151.08230027347815 H 0.0 **** 0.06
36628 H 25.69495344783354 118.85015673996537 152.49003720150392 H 0.0 **** 0.06
36629 H 25.446223045911097 120.50117148223606 151.87122378414233 H 0.0 **** 0.06
36630 H 26.96422343859888 120.08047134009877 152.70002332766822 H 0.0 **** 0.06
36631 C 172.79052521043116 36.863755189856874 96.08611321276265 C 0.0 **** -0.24
36632 H 173.7760126806028 36.45876516555313 95.8552599754247 H 0.0 **** 0.06
36633 H 172.64607959293312 37.797725518067864 95.54200789574077 H 0.0 **** 0.06
36634 H 172.71579152973283 37.050526935872085 97.15744223627769 H 0.0 **** 0.06
36635 H 172.0243971798613 36.147323607830344 95.78851562159747 H 0.0 **** 0.06
36636 C 36.08916983969206 143.99084452789148 112.49373784993105 C 0.0 **** -0.24
36637 H 35.27294776929284 144.18161518704977 111.7973731771585 H 0.0 **** 0.06
36638 H 36.50116782583663 144.94002308237407 112.83856308907028 H 0.0 **** 0.06
36639 H 36.86830144663898 143.41763486237832 111.99171863642118 H 0.0 **** 0.06
36640 H 35.71412550461932 143.4265457760239 113.34714181775789 H 0.0 **** 0.06
36641 C 172.46649300287874 44.27300887087614 77.36420869784632 C 0.0 **** -0.24
36642 H 171.3867934384439 44.12312115055687 77.3867745501471 H 0.0 **** 0.06
36643 H 172.8940129605612 43.97968737500406 78.32350160866382 H 0.0 **** 0.06
36644 H 172.6828961236273 45.324074809892466 77.1754582172386 H 0.0 **** 0.06
36645 H 172.90062355204068 43.6633886969411 76.57152616384892 H 0.0 **** 0.06
36646 C 161.9072209945864 62.449893013866756 66.97566389845392 C 0.0 **** -0.24
36647 H 161.78003834014945 62.604270011877404 68.04744186542803 H 0.0 **** 0.06
36648 H 161.7806240688983 63.39974407048824 66.45504801650556 H 0.0 **** 0.06
36649 H 161.16181410456676 61.73908714130857 66.6205480891699 H 0.0 **** 0.06
36650 H 162.9054682996952 62.058534303051445 66.78054508435547 H 0.0 **** 0.06
36651 C 133.54601710177423 40.85370351590467 94.77787670197995 C 0.0 **** -0.24
36652 H 133.80592179220434 40.378694998627225 95.72414894283816 H 0.0 **** 0.06
36653 H 132.51602020317893 40.60730412089157 94.51989141041662 H 0.0 **** 0.06
36654 H 134.21430430239877 40.4939089812371 93.9959484578236 H 0.0 **** 0.06
36655 H 133.6479411447254 41.9345208411616 94.87481007059966 H 0.0 **** 0.06
36656 C 74.34571731720887 93.61591675386993 143.01321238833623 C 0.0 **** -0.24
36657 H 73.6217188506178 93.00596467214854 142.47354642988196 H 0.0 **** 0.06
36658 H 75.35100783096782 93.38158738358706 142.66353767550916 H 0.0 **** 0.06
36659 H 74.27304017151135 93.40529821019382 144.0807818571712 H 0.0 **** 0.06
36660 H 74.13500062707288 94.67076801140902 142.8362406662374 H 0.0 **** 0.06
36661 C 94.69666105288974 191.94384263335235 25.25331536237013 C 0.0 **** -0.24
36662 H 94.83825869559072 191.79315303651074 26.322484379539873 H 0.0 **** 0.06
36663 H 95.54784656402046 191.52981705022688 24.71212986744638 H 0.0 **** 0.06
36664 H 94.61643981641456 193.01034490731388 25.04410464319878 H 0.0 **** 0.06
36665 H 93.78356312297888 191.44225907886477 24.93290813980809 H 0.0 **** 0.06
36666 C 195.95539749795043 50.1556088850179 122.93500327881384 C 0.0 **** -0.24
36667 H 196.6848389716039 50.42215333900526 123.70017573263289 H 0.0 **** 0.06
36668 H 196.41330427184062 49.469252883277875 122.22151007975185 H 0.0 **** 0.06
36669 H 195.62878091185001 51.05566413345116 122.41574438273551 H 0.0 **** 0.06
36670 H 195.09710023411532 49.67363846708079 123.40288681214133 H 0.0 **** 0.06
36671 C 91.07722787014279 102.61031691518588 160.76994229784168 C 0.0 **** -0.24
36672 H 91.43930812863624 103.63555956995236 160.6927472892453 H 0.0 **** 0.06
36673 H 91.86613335256979 101.9763000153942 161.1723579457551 H 0.0 **** 0.06
36674 H 90.79047385573978 102.2519210165787 159.78051052611977 H 0.0 **** 0.06
36675 H 90.21178002330765 102.58020920918898 161.4318926225668 H 0.0 **** 0.06
36676 C 184.016307577668 183.69016529536094 110.39438877766514 C 0.0 **** -0.24
36677 H 184.3711184164742 183.07078523886585 109.57047961887133 H 0.0 **** 0.06
36678 H 184.5132375741511 184.6599009523669 110.360388414645 H 0.0 **** 0.06
36679 H 184.24057278292946 183.19864079703422 111.34116883211874 H 0.0 **** 0.06
36680 H 182.93897000389123 183.8306907130753 110.30461657020737 H 0.0 **** 0.06
36681 C 94.42976317534294 158.0065782831872 146.76213432715147 C 0.0 **** -0.24
36682 H 94.98281031232602 157.08459803332602 146.58499611036453 H 0.0 **** 0.06
36683 H 94.38792521433629 158.5870041154069 145.84009737796896 H 0.0 **** 0.06
36684 H 94.93111027844907 158.58780000039135 147.53488787219231 H 0.0 **** 0.06
36685 H 93.41675251424681 157.76577816880618 147.0866823484279 H 0.0 **** 0.06
36686 C 20.171878691731365 82.65081102258284 137.09047418994436 C 0.0 **** -0.24
36687 H 20.9478321149048 81.89080680365103 137.17802725328556 H 0.0 **** 0.06
36688 H 20.603455405552594 83.63400716090754 137.27596424229722 H 0.0 **** 0.06
36689 H 19.38720950936832 82.45405321391564 137.8217042106916 H 0.0 **** 0.06
36690 H 19.747498696683664 82.62311016048795 136.08649760644724 H 0.0 **** 0.06
36691 C 194.16361200074664 150.23755323289748 24.704664834826772 C 0.0 **** -0.24
36692 H 194.82737585823568 151.10167343276802 24.70232251111746 H 0.0 **** 0.06
36693 H 193.53050210928797 150.26733074384245 25.591159525386686 H 0.0 **** 0.06
36694 H 194.756949090203 149.32359542929515 24.71186893715098 H 0.0 **** 0.06
36695 H 193.53973062087766 150.25824790363458 23.81037826725145 H 0.0 **** 0.06
36696 C 7.8174968109875635 131.62805135961526 49.94561101149742 C 0.0 **** -0.24
36697 H 7.510222272053369 131.71954078044385 50.98707858740977 H 0.0 **** 0.06
36698 H 8.78106663767204 131.12133489575643 49.894120314454995 H 0.0 **** 0.06
36699 H 7.905189345648381 132.6210936884416 49.50466811481732 H 0.0 **** 0.06
36700 H 7.073576826223388 131.05196577688093 49.39651711085213 H 0.0 **** 0.06
36701 C 141.47597735767138 73.05278671119132 16.311070691241923 C 0.0 **** -0.24
36702 H 142.0721002189895 73.49645532989088 15.512871217552117 H 0.0 **** 0.06
36703 H 141.46018091121806 73.72608792878567 17.168902058307935 H 0.0 **** 0.06
36704 H 141.91530026098724 72.0994145322441 16.60485898275431 H 0.0 **** 0.06
36705 H 140.45903482121446 72.89067137305231 15.956435475386343 H 0.0 **** 0.06
36706 C 144.9513572333251 189.3583449051112 68.65456563024293 C 0.0 **** -0.24
36707 H 144.06843194265915 188.83357551258732 69.01999100727694 H 0.0 **** 0.06
36708 H 145.41438199665754 189.90572128818263 69.47608243678721 H 0.0 **** 0.06
36709 H 144.65871245034177 190.05797439097964 67.87114472648656 H 0.0 **** 0.06
36710 H 145.66199537327012 188.63742666916147 68.25183496596932 H 0.0 **** 0.06
36711 C 192.21049729008044 155.4032772683925 168.9440201709316 C 0.0 **** -0.24
36712 H 192.72316133311176 156.252825942909 168.49288570044945 H 0.0 **** 0.06
36713 H 192.41129658086405 154.50605140679167 168.35831027118138 H 0.0 **** 0.06
36714 H 191.13756655877032 155.59369797672724 168.95987176730387 H 0.0 **** 0.06
36715 H 192.5701832880411 155.2613986884266 169.9627316688086 H 0.0 **** 0.06
36716 C 43.205641441292585 155.9538265512245 72.27679219269112 C 0.0 **** -0.24
36717 H 42.498217346837706 156.40970075500954 72.96971971421391 H 0.0 **** 0.06
36718 H 42.987335152656684 154.88993774654656 72.18102857426726 H 0.0 **** 0.06
36719 H 44.21957191812032 156.08443876458244 72.65591636281773 H 0.0 **** 0.06
36720 H 43.11820642023312 156.43173257177074 71.3015816447883 H 0.0 **** 0.06
36721 C 160.78278037652152 188.202673770322 170.7286118338028 C 0.0 **** -0.24
36722 H 160.88433715062664 189.20763300401165 171.13985126539512 H 0.0 **** 0.06
36723 H 160.10829846193366 187.62099028658463 171.35609022417188 H 0.0 **** 0.06
36724 H 161.76002031199266 187.7216913698856 170.70058148847812 H 0.0 **** 0.06
36725 H 160.37830190925507 188.26369019100605 169.7177869876153 H 0.0 **** 0.06
36726 C 107.96846989208066 155.49510308803642 35.659250059320755 C 0.0 **** -0.24
36727 H 108.32855874089037 156.3921727878097 36.16312867678971 H 0.0 **** 0.06
36728 H 107.22648540947716 155.77337185833906 34.91035406060371 H 0.0 **** 0.06
36729 H 107.51318569677295 154.82685298453094 36.390186296734555 H 0.0 **** 0.06
36730 H 108.8036944051457 154.99011518677597 35.17499403882431 H 0.0 **** 0.06
36731 C 135.7780013151427 30.989528809104883 125.90868540754434 C 0.0 **** -0.24
36732 H 136.14257834377065 31.90604278709543 126.37349119407656 H 0.0 **** 0.06
36733 H 135.0252309926205 30.531871359799396 126.55134021763519 H 0.0 **** 0.06
36734 H 136.6086988088167 30.29779750163874 125.77055813147115 H 0.0 **** 0.06
36735 H 135.33628355389152 31.2251172287003 124.94077260948202 H 0.0 **** 0.06
36736 C 43.70163533019988 87.7201220960178 118.2133666798994 C 0.0 **** -0.24
36737 H 44.783488326846566 87.85708297871713 118.20969029038676 H 0.0 **** 0.06
36738 H 43.462482940663136 86.7168802451639 117.85973605416967 H 0.0 **** 0.06
36739 H 43.24082169561632 88.4570180153654 117.55670249821884 H 0.0 **** 0.06
36740 H 43.322701405715804 87.84840054092547 119.22710303381672 H 0.0 **** 0.06
36741 C 167.07155100068758 88.27948355829139 168.3729332451652 C 0.0 **** -0.24
36742 H 167.8639600379292 87.82604640927488 167.77703445933062 H 0.0 **** 0.06
36743 H 166.39965303816314 87.50183882152223 168.73588843470213 H 0.0 **** 0.06
36744 H 166.512985997952 88.98542945959855 167.75755106719566 H 0.0 **** 0.06
36745 H 167.51161580123818 88.80549331799156 169.2208196828819 H 0.0 **** 0.06
36746 C 112.20743554075614 20.782234205113866 117.76373817246531 C 0.0 **** -0.24
36747 H 111.37802224219843 20.37480812175248 118.34144764943312 H 0.0 **** 0.06
36748 H 112.46402969918961 21.771038447954368 118.14408971058185 H 0.0 **** 0.06
36749 H 111.91740558858248 20.85854848439314 116.71599038238378 H 0.0 **** 0.06
36750 H 113.07058888960228 20.12237463921086 117.85388439928329 H 0.0 **** 0.06
36751 C 30.540578601993957 28.709287031719555 62.2168752435644 C 0.0 **** -0.24
36752 H 30.597640030853967 28.697213236122906 61.12871630024162 H 0.0 **** 0.06
36753 H 29.516369088307556 28.91735102526809 62.525056863788734 H 0.0 **** 0.06
36754 H 31.202264632636968 29.482667657529532 62.606609359484 H 0.0 **** 0.06
36755 H 30.84727384158765 27.738343192006084 62.607048016185615 H 0.0 **** 0.06
36756 C 132.1485904677135 139.75347548442386 93.67358033690559 C 0.0 **** -0.24
36757 H 132.6866405900748 139.41895427408662 92.7859873377001 H 0.0 **** 0.06
36758 H 132.34157078745096 139.0641280454415 94.4959369505907 H 0.0 **** 0.06
36759 H 131.07981940212755 139.77728164522813 93.46197374936341 H 0.0 **** 0.06
36760 H 132.48706874595797 140.75213039755056 93.948850190434 H 0.0 **** 0.06
36761 C 13.483605174859207 149.24939368372978 71.61555201299632 C 0.0 **** -0.24
36762 H 12.55669452822076 148.75235431832994 71.90081538881194 H 0.0 **** 0.06
36763 H 14.30492247160771 148.85939260666885 72.21734080954015 H 0.0 **** 0.06
36764 H 13.387094397982878 150.32241513551196 71.78425393633884 H 0.0 **** 0.06
36765 H 13.685771036635913 149.0634403100692 70.56121052774743 H 0.0 **** 0.06
36766 C 28.442159511637556 95.58099337389251 67.84932549719383 C 0.0 **** -0.24
36767 H 28.976517894296194 96.4014177394306 68.32921785968676 H 0.0 **** 0.06
36768 H 27.983655956416044 94.95096471574078 68.6118142327079 H 0.0 **** 0.06
36769 H 29.140985557215174 94.98821087641932 67.26009148082522 H 0.0 **** 0.06
36770 H 27.667262840662005 95.98474708062946 67.1979348546227 H 0.0 **** 0.06
36771 C 98.38720017004735 138.16638847773518 29.525660611899838 C 0.0 **** -0.24
36772 H 97.82859195560505 139.04106830085252 29.860716994533902 H 0.0 **** 0.06
36773 H 98.04956311048781 137.87891967027824 28.530039409490968 H 0.0 **** 0.06
36774 H 98.22032346243583 137.3427913189759 30.21888895603965 H 0.0 **** 0.06
36775 H 99.45006416942348 138.405600739881 29.49397006792975 H 0.0 **** 0.06
36776 C 164.03639801663996 161.31756155056928 118.33458468269058 C 0.0 **** -0.24
36777 H 163.13021652266042 161.0812282026106 118.8934705014297 H 0.0 **** 0.06
36778 H 164.24195783924188 162.38589068047617 118.41258946252725 H 0.0 **** 0.06
36779 H 163.89709481238404 161.0494254610245 117.2871380995426 H 0.0 **** 0.06
36780 H 164.87346395856588 160.75495143167643 118.74626552364484 H 0.0 **** 0.06
36781 C 104.76302813152697 118.15242374792228 83.15706718076211 C 0.0 **** -0.24
36782 H 104.61725043098761 117.15530962120675 83.57207435464468 H 0.0 **** 0.06
36783 H 104.09705771922125 118.29248777900887 82.3053388380971 H 0.0 **** 0.06
36784 H 105.7969922549816 118.26382733020583 82.83284490608153 H 0.0 **** 0.06
36785 H 104.53824052533977 118.89867083687915 83.91975028548177 H 0.0 **** 0.06
36786 C 17.805648050725253 154.69260943985864 164.90219610348265 C 0.0 **** -0.24
36787 H 17.150823107931757 155.16644420657343 165.6331438304916 H 0.0 **** 0.06
36788 H 17.210507264098993 154.32267856284 164.06647766874974 H 0.0 **** 0.06
36789 H 18.330944849597174 153.8612252442725 165.37124967624956 H 0.0 **** 0.06
36790 H 18.530581568510144 155.4214335914797 164.5382655387068 H 0.0 **** 0.06
36791 C 113.09330029827024 175.9801319511905 21.578731225538263 C 0.0 **** -0.24
36792 H 114.11983886627036 176.07052434803802 21.933871289151625 H 0.0 **** 0.06
36793 H 113.09522430744966 175.63769542472335 20.54404373634287 H 0.0 **** 0.06
36794 H 112.60131353277814 176.9516591644336 21.639217675866462 H 0.0 **** 0.06
36795 H 112.55618554279295 175.26218292025692 22.198905088767162 H 0.0 **** 0.06
36796 C 112.11344098671688 120.41777319100777 129.0425729410366 C 0.0 **** -0.24
36797 H 112.27810446257268 120.81186299823858 128.03998437380915 H 0.0 **** 0.06
36798 H 112.69287755108937 120.9990495367206 129.76059994865403 H 0.0 **** 0.06
36799 H 112.4286393518644 119.37536678618105 129.0795397285093 H 0.0 **** 0.06
36800 H 111.05439709241085 120.48651641648411 129.2903552495871 H 0.0 **** 0.06
36801 C 108.98121421252768 168.76609765230737 64.16615700031622 C 0.0 **** -0.24
36802 H 109.78050051601423 168.362787629047 63.54337442183515 H 0.0 **** 0.06
36803 H 109.09928386392926 168.4042412723224 65.18727951429211 H 0.0 **** 0.06
36804 H 108.0172249556775 168.44174711377343 63.77428824446372 H 0.0 **** 0.06
36805 H 109.02915888729021 169.85474955950278 64.15809455557016 H 0.0 **** 0.06
36806 C 125.9221979154083 108.36171924416095 71.29946899227443 C 0.0 **** -0.24
36807 H 126.24369946600046 107.36788910487309 70.98875195245729 H 0.0 **** 0.06
36808 H 126.72812224110493 108.84851114846211 71.84914918736283 H 0.0 **** 0.06
36809 H 125.04441827298763 108.27542501425035 71.94018647710125 H 0.0 **** 0.06
36810 H 125.67182673961105 108.9545636561634 70.41930226042741 H 0.0 **** 0.06
36811 C 178.14390801027525 64.89556862369943 29.195193096453266 C 0.0 **** -0.24
36812 H 178.62621539038508 65.59021840290328 28.508067241640745 H 0.0 **** 0.06
36813 H 177.54428844023226 64.18190550029898 28.62887425365686 H 0.0 **** 0.06
36814 H 177.50014434809458 65.44933207978536 29.879234092045934 H 0.0 **** 0.06
36815 H 178.9041720721931 64.36025329170569 29.76474357901469 H 0.0 **** 0.06
36816 C 114.49124156398636 138.26483136054512 194.27224113328617 C 0.0 **** -0.24
36817 H 114.49739432236774 139.35525377083277 194.249397644038 H 0.0 **** 0.06
36818 H 114.21366580705671 137.92512725689053 195.27049987838618 H 0.0 **** 0.06
36819 H 115.48448574273601 137.89125251834852 194.0238552930229 H 0.0 **** 0.06
36820 H 113.76977655116684 137.88983395765 193.5463452285488 H 0.0 **** 0.06
36821 C 25.16325918785921 192.00615324882224 146.67119232493144 C 0.0 **** -0.24
36822 H 24.214266980772777 191.95337820609637 147.20482540937485 H 0.0 **** 0.06
36823 H 25.954344915406125 191.5906265581898 147.29528255916875 H 0.0 **** 0.06
36824 H 25.390896893832604 193.0458252738749 146.4377596396189 H 0.0 **** 0.06
36825 H 25.090921216933083 191.43336011782856 145.74581512465505 H 0.0 **** 0.06
36826 C 144.4436307273983 148.07142101729917 18.2393662249477 C 0.0 **** -0.24
36827 H 144.5859288588161 147.71103386280214 19.257356395279288 H 0.0 **** 0.06
36828 H 143.99529725507742 147.28297359382188 17.634493139537184 H 0.0 **** 0.06
36829 H 145.40832130512726 148.3508041613351 17.814838431046965 H 0.0 **** 0.06
36830 H 143.78623066255082 148.9410761784034 18.249600879763122 H 0.0 **** 0.06
36831 C 122.4625083379351 43.660036462211224 95.70595292961974 C 0.0 **** -0.24
36832 H 122.62618005209595 42.91146857630437 94.93117982885619 H 0.0 **** 0.06
36833 H 121.88226125445789 44.48641432878193 95.2963279664225 H 0.0 **** 0.06
36834 H 123.42472851732146 44.03186601352178 96.0599470289147 H 0.0 **** 0.06
36835 H 121.91906422808586 43.21036386106965 96.5367517778794 H 0.0 **** 0.06
36836 C 19.109319171003037 85.65693705014405 58.21915077145292 C 0.0 **** -0.24
36837 H 19.637117889002 84.740243311878 58.48020969795442 H 0.0 **** 0.06
36838 H 19.652993832733657 86.51495593534196 58.61698890355501 H 0.0 **** 0.06
36839 H 18.106281181476547 85.63301361216418 58.645541614336295 H 0.0 **** 0.06
36840 H 19.040443399355894 85.74070872659374 57.13451806010313 H 0.0 **** 0.06
36841 C 49.25078334352273 120.31260544832912 154.685523770845 C 0.0 **** -0.24
36842 H 49.64665961354967 119.88123566794684 153.76612082671093 H 0.0 **** 0.06
36843 H 49.63891439449819 119.76011881609554 155.54151238154412 H 0.0 **** 0.06
36844 H 48.1626049766063 120.25150461932196 154.67586925368332 H 0.0 **** 0.06
36845 H 49.55627690258777 121.35627037092024 154.7573352517391 H 0.0 **** 0.06
36846 C 195.64804390272798 139.05708758654504 111.5542053996437 C 0.0 **** -0.24
36847 H 194.66080104614375 139.25168970791805 111.13413248004144 H 0.0 **** 0.06
36848 H 195.96855730353755 138.05211856241033 111.2798313849014 H 0.0 **** 0.06
36849 H 195.6047729809606 139.14149840476324 112.639557462026 H 0.0 **** 0.06
36850 H 196.35860887771616 139.7857354949013 111.16173965299379 H 0.0 **** 0.06
36851 C 138.35544559455263 118.0885332642595 71.3876857499663 C 0.0 **** -0.24
36852 H 138.7289814933739 117.26703338923403 70.77778122250658 H 0.0 **** 0.06
36853 H 138.9983868397498 118.21492845174879 72.25937062279371 H 0.0 **** 0.06
36854 H 137.33984599395916 117.8659556647099 71.71332868715069 H 0.0 **** 0.06
36855 H 138.35496464350678 119.00678461291457 70.79954211678302 H 0.0 **** 0.06
36856 C 88.90916683849062 139.86056979409855 44.867009805692845 C 0.0 **** -0.24
36857 H 89.16598581880405 138.85362887285532 44.53768218764476 H 0.0 **** 0.06
36858 H 89.35321374340839 140.58801876284258 44.18728263054575 H 0.0 **** 0.06
36859 H 89.29237464652923 140.02221081403889 45.87404238560248 H 0.0 **** 0.06
36860 H 87.82561114661061 139.97628812029836 44.86698657056118 H 0.0 **** 0.06
36861 C 154.19293588167636 160.8038721602323 63.75647761399006 C 0.0 **** -0.24
36862 H 155.00170415901374 161.52552565057178 63.868770903027354 H 0.0 **** 0.06
36863 H 154.06435388033782 160.56275797438815 62.701698356624945 H 0.0 **** 0.06
36864 H 153.2699253275525 161.22999341625305 64.14774075092168 H 0.0 **** 0.06
36865 H 154.43745749523893 159.8968447735087 64.30942805085255 H 0.0 **** 0.06
36866 C 123.25219366205076 173.17043834445616 111.29754319892402 C 0.0 **** -0.24
36867 H 122.93502048575013 173.81072149390707 112.12134558486525 H 0.0 **** 0.06
36868 H 123.81361885686346 173.76211634474404 110.57420469895911 H 0.0 **** 0.06
36869 H 122.37542923036804 172.74050807596538 110.81382451441175 H 0.0 **** 0.06
36870 H 123.88424378928451 172.3709596860702 111.68260704868717 H 0.0 **** 0.06
36871 C 122.69847102372003 161.35640401483752 65.56199500493267 C 0.0 **** -0.24
36872 H 122.55454892422947 161.50084942821667 64.49087799416469 H 0.0 **** 0.06
36873 H 123.61243044822467 161.86137753085842 65.87652898665618 H 0.0 **** 0.06
36874 H 122.77909844434939 160.29145165797348 65.77668396369518 H 0.0 **** 0.06
36875 H 121.84831647915036 161.77373997081492 66.10097516972138 H 0.0 **** 0.06
36876 C 77.16769625562038 122.46918200492757 110.32948956857018 C 0.0 **** -0.24
36877 H 76.52612616949392 122.70235936018145 109.48003867770194 H 0.0 **** 0.06
36878 H 76.73370579586891 121.64684748181901 110.89806048757 H 0.0 **** 0.06
36879 H 77.25453553419061 123.34718889153123 110.96962825006031 H 0.0 **** 0.06
36880 H 78.15604918673912 122.18148153374602 109.9709681524549 H 0.0 **** 0.06
36881 C 106.19616314511083 145.11292076121202 108.10266137366989 C 0.0 **** -0.24
36882 H 107.19543334346727 144.76662983237773 107.83659113770511 H 0.0 **** 0.06
36883 H 105.89595790221426 144.66313342580352 109.04965074613187 H 0.0 **** 0.06
36884 H 105.49217518911547 144.8214102415722 107.32300935881028 H 0.0 **** 0.06
36885 H 106.20149706774927 146.19847189054218 108.20009839839406 H 0.0 **** 0.06
36886 C 78.51913250679888 29.69786671377345 77.7326202758053 C 0.0 **** -0.24
36887 H 77.96005686003645 28.874520327571247 77.28676620025405 H 0.0 **** 0.06
36888 H 77.96650677204023 30.62786790076285 77.59509102146896 H 0.0 **** 0.06
36889 H 79.49336250686073 29.778531446581198 77.25097229264965 H 0.0 **** 0.06
36890 H 78.65401572513721 29.509406349455404 78.79766106803214 H 0.0 **** 0.06
36891 C 68.2844544689263 179.60733593948916 109.09906851241686 C 0.0 **** -0.24
36892 H 69.0582797348996 179.4097781424019 108.35666695249245 H 0.0 **** 0.06
36893 H 67.90739615314055 178.66259042703902 109.4912096017658 H 0.0 **** 0.06
36894 H 67.46794542848346 180.16029287640612 108.634168194641 H 0.0 **** 0.06
36895 H 68.7055039320339 180.19801818236368 109.91351774377421 H 0.0 **** 0.06
36896 C 21.159326283570238 31.856292679804653 52.863998065751176 C 0.0 **** -0.24
36897 H 21.37171219174769 31.713323935260775 53.923630951333664 H 0.0 **** 0.06
36898 H 20.0813939467146 31.84688592926554 52.70496015950175 H 0.0 **** 0.06
36899 H 21.619266912491867 31.051086492697436 52.29063839839483 H 0.0 **** 0.06
36900 H 21.566666287452676 32.81329354831968 52.53839226941584 H 0.0 **** 0.06
36901 C 87.76711403916559 8.803141923551948 182.12468223386944 C 0.0 **** -0.24
36902 H 86.94728380080673 8.442553246367765 182.74671429848277 H 0.0 **** 0.06
36903 H 88.70018652591045 8.746743429757288 182.68482026595132 H 0.0 **** 0.06
36904 H 87.57679131542514 9.837107908744315 181.83825900105518 H 0.0 **** 0.06
36905 H 87.84142494078043 8.186450592761332 181.2294323483736 H 0.0 **** 0.06
36906 C 7.220764253232744 56.19661714572419 173.6917492194458 C 0.0 **** -0.24
36907 H 7.45929195634568 56.3938766106713 174.7362619732297 H 0.0 **** 0.06
36908 H 7.929985443933987 55.473773858971484 173.2880320213241 H 0.0 **** 0.06
36909 H 7.282780138151878 57.12439386987802 173.12358018828002 H 0.0 **** 0.06
36910 H 6.21105702011198 55.79266556198826 173.62050249071802 H 0.0 **** 0.06
36911 C 198.49425662901422 57.10865591391422 151.2787071011798 C 0.0 **** -0.24
36912 H 197.47002641684338 57.40565096237884 151.50601771192248 H 0.0 **** 0.06
36913 H 198.78059851899565 57.50659785239327 150.3054074513014 H 0.0 **** 0.06
36914 H 198.56050835740118 56.020592375876475 151.2608987175027 H 0.0 **** 0.06
36915 H 199.1636217390024 57.50038549240182 152.04387894145756 H 0.0 **** 0.06
36916 C 25.124562177934052 124.47919433597724 130.42848744214143 C 0.0 **** -0.24
36917 H 25.687783085290732 124.10655931379597 131.28380727837134 H 0.0 **** 0.06
36918 H 24.081888902484934 124.62253784641786 130.71545922385693 H 0.0 **** 0.06
36919 H 25.181082205740694 123.75780578249231 129.61312756435976 H 0.0 **** 0.06
36920 H 25.545136439221636 125.43004554315357 130.10219625140715 H 0.0 **** 0.06
36921 C 159.8444046422592 186.19430029298601 191.97118535096644 C 0.0 **** -0.24
36922 H 159.67118725023286 185.13571449684727 191.77686722163733 H 0.0 **** 0.06
36923 H 158.90573126276865 186.66751832012827 192.2624870959206 H 0.0 **** 0.06
36924 H 160.22825613705476 186.67122329968464 191.06951903163343 H 0.0 **** 0.06
36925 H 160.57082012284508 186.3014634068529 192.776717037297 H 0.0 **** 0.06
36926 C 66.78755473787923 109.70127201218631 67.15230740614541 C 0.0 **** -0.24
36927 H 67.8175128690398 109.34574358957641 67.10976929350677 H 0.0 **** 0.06
36928 H 66.1329026057985 108.97754735532149 66.66519045677721 H 0.0 **** 0.06
36929 H 66.71330933121607 110.66100678858655 66.64088149544617 H 0.0 **** 0.06
36930 H 66.48745851030013 109.82078183098602 68.19365285965239 H 0.0 **** 0.06
36931 C 26.722780711660434 195.0270108202651 177.51721802810033 C 0.0 **** -0.24
36932 H 26.376559652455 195.61648573767337 178.36649889660202 H 0.0 **** 0.06
36933 H 26.014042742636278 194.22193935508474 177.32111314050036 H 0.0 **** 0.06
36934 H 27.701120343555786 194.6027601633566 177.74395496095045 H 0.0 **** 0.06
36935 H 26.798815602007494 195.6663221809098 176.63847612551598 H 0.0 **** 0.06
36936 C 169.65148514549514 128.35322947264 149.23628440579006 C 0.0 **** -0.24
36937 H 170.11868983278134 128.6512323811677 148.2974805198292 H 0.0 **** 0.06
36938 H 168.7316768651753 128.91887848415388 149.38114841635652 H 0.0 **** 0.06
36939 H 170.33523567793614 128.55413554182167 150.06138600885245 H 0.0 **** 0.06
36940 H 169.4237081918668 127.28704613279479 149.20516431751116 H 0.0 **** 0.06
36941 C 146.61438922463248 101.26958448453331 101.11463667435885 C 0.0 **** -0.24
36942 H 146.64144161262843 100.22938213570416 101.43800474206682 H 0.0 **** 0.06
36943 H 147.45172507148212 101.4635056230523 100.4433543335598 H 0.0 **** 0.06
36944 H 146.68796023182574 101.92257727224657 101.98465703181193 H 0.0 **** 0.06
36945 H 145.6771230516429 101.46342174117635 100.59299798501104 H 0.0 **** 0.06
36946 C 24.26969995588746 192.9204603341378 142.75014497155905 C 0.0 **** -0.24
36947 H 23.6969782468407 193.83241815729178 142.58217041818745 H 0.0 **** 0.06
36948 H 23.87105906648867 192.39693431917996 143.61936108079706 H 0.0 **** 0.06
36949 H 25.314817571145312 193.17614089717674 142.9284153585067 H 0.0 **** 0.06
36950 H 24.19685952123234 192.27829647878295 141.8729497163606 H 0.0 **** 0.06
36951 C 133.80375041322114 139.9588574069822 67.32253274889253 C 0.0 **** -0.24
36952 H 132.8610112575218 139.97733749091253 67.86749238907122 H 0.0 **** 0.06
36953 H 134.3166691524161 140.9124729543792 67.45048372787252 H 0.0 **** 0.06
36954 H 133.60818146689797 139.79117508842864 66.26296201968054 H 0.0 **** 0.06
36955 H 134.4311786048923 139.15438616143294 67.70699285547069 H 0.0 **** 0.06
36956 C 147.4508361513986 11.902704705131328 129.45368897128787 C 0.0 **** -0.24
36957 H 148.44735810472883 11.519416088409287 129.67204305360858 H 0.0 **** 0.06
36958 H 146.7316674054598 11.084255020548426 129.4852818522764 H 0.0 **** 0.06
36959 H 147.444548571237 12.354366149658063 128.4621290541295 H 0.0 **** 0.06
36960 H 147.17985097888047 12.653603154366493 130.19645020912108 H 0.0 **** 0.06
36961 C 107.63995810958318 130.094065981313 50.28915704300711 C 0.0 **** -0.24
36962 H 108.02751828191396 129.21331356532647 49.77784210964576 H 0.0 **** 0.06
36963 H 106.76428942317148 130.4670761203191 49.75605244345499 H 0.0 **** 0.06
36964 H 108.40730540437289 130.86730174120672 50.31250769490555 H 0.0 **** 0.06
36965 H 107.35995168879589 129.82865438399966 51.30790124056847 H 0.0 **** 0.06
36966 C 102.53938570191596 1.350694253601759 41.03643802755016 C 0.0 **** -0.24
36967 H 102.35807171583039 1.8192918054762828 40.06966751001423 H 0.0 **** 0.06
36968 H 102.79738215927651 2.1155498864627518 41.76895176262937 H 0.0 **** 0.06
36969 H 103.36154731734632 0.6402892359896271 40.947254611495964 H 0.0 **** 0.06
36970 H 101.63985950076275 0.8255907011234669 41.35932125298473 H 0.0 **** 0.06
36971 C 166.7413029017237 119.16971800995012 52.38645599235018 C 0.0 **** -0.24
36972 H 165.93971123023567 119.82391130502268 52.72830477701616 H 0.0 **** 0.06
36973 H 166.42266269817137 118.64580836157486 51.48429479700718 H 0.0 **** 0.06
36974 H 166.97427905978714 118.44388309405457 53.164877757418225 H 0.0 **** 0.06
36975 H 167.62760775880284 119.76470049966639 52.16701531523137 H 0.0 **** 0.06
36976 C 122.41321266312394 17.941985015477528 54.9319188792077 C 0.0 **** -0.24
36977 H 123.39173871338679 17.46208503076572 54.90830824907721 H 0.0 **** 0.06
36978 H 122.40408745396783 18.78291613711002 54.23814134152201 H 0.0 **** 0.06
36979 H 122.20924152516491 18.300224634579394 55.94075624155485 H 0.0 **** 0.06
36980 H 121.64935513459932 17.22084410420291 54.64029385524901 H 0.0 **** 0.06
36981 C 175.30420828145665 69.34404049802959 13.229781150578397 C 0.0 **** -0.24
36982 H 175.26384574997047 70.03930254567729 12.390904373503432 H 0.0 **** 0.06
36983 H 174.48212514494995 68.63250381197429 13.150708089897414 H 0.0 **** 0.06
36984 H 175.21880333240253 69.89777677365919 14.164219373384228 H 0.0 **** 0.06
36985 H 176.2531642533326 68.80779505604539 13.2109907592777 H 0.0 **** 0.06
36986 C 92.20705335881732 125.54038373096432 83.62079299105267 C 0.0 **** -0.24
36987 H 92.39553905927224 124.62326671174446 84.1781619698927 H 0.0 **** 0.06
36988 H 93.08239624286378 126.18801980442882 83.67887099120571 H 0.0 **** 0.06
36989 H 91.34608242586165 126.05428732031052 84.04893648121924 H 0.0 **** 0.06
36990 H 92.00305805911094 125.29681232787127 82.57819308290959 H 0.0 **** 0.06
36991 C 51.40613446787087 154.58233722252888 185.27723429771447 C 0.0 **** -0.24
36992 H 51.17926776066001 153.77738235105488 185.9760438761357 H 0.0 **** 0.06
36993 H 50.712077362014654 154.54054975270503 184.4383319169742 H 0.0 **** 0.06
36994 H 52.4264202979829 154.46918888127652 184.91125622195085 H 0.0 **** 0.06
36995 H 51.305674013018205 155.5417721969951 185.78456447297214 H 0.0 **** 0.06
36996 C 62.362377997793246 14.837895079804696 20.086549797353626 C 0.0 **** -0.24
36997 H 61.621199711338434 15.580961201153855 19.791402071313314 H 0.0 **** 0.06
36998 H 61.928881960025535 13.84054598354598 20.004089647393045 H 0.0 **** 0.06
36999 H 62.667627974205885 15.018464072800839 21.1162667146248 H 0.0 **** 0.06
37000 H 63.23012222287048 14.911574749199588 19.43067560300051 H 0.0 **** 0.06
37001 C 184.37561361221287 153.32903773405417 128.46350565028206 C 0.0 **** -0.24
37002 H 183.890250661212 154.26453075816244 128.74387739738498 H 0.0 **** 0.06
37003 H 185.23890152124463 153.54329782376155 127.83234219006931 H 0.0 **** 0.06
37004 H 183.67047436329372 152.70466636105562 127.9158828917362 H 0.0 **** 0.06
37005 H 184.70330712335138 152.80602645295622 129.36230922137432 H 0.0 **** 0.06
37006 C 142.86836236066569 83.5193754990442 15.014115305485774 C 0.0 **** -0.24
37007 H 142.86544979067827 83.67554094622605 16.092619612766157 H 0.0 **** 0.06
37008 H 143.7978834684168 83.03040430273433 14.720495844331026 H 0.0 **** 0.06
37009 H 142.78854689878446 84.48135261612663 14.507150597325136 H 0.0 **** 0.06
37010 H 142.02244520109872 82.89056101167102 14.735870470006006 H 0.0 **** 0.06
37011 C 102.81883849645584 181.1109691039773 31.686368933492588 C 0.0 **** -0.24
37012 H 102.09298963530614 180.4844973970222 32.205228570506804 H 0.0 **** 0.06
37013 H 103.77688433199364 180.59388755328308 31.639780157996228 H 0.0 **** 0.06
37014 H 102.93844430581805 182.04999969909312 32.227508187033436 H 0.0 **** 0.06
37015 H 102.46658842006997 181.31571742286422 30.675916723614876 H 0.0 **** 0.06
37016 C 53.27851539730966 180.0546184501555 48.49290973656014 C 0.0 **** -0.24
37017 H 53.52666583551536 179.09353498154687 48.04231722346313 H 0.0 **** 0.06
37018 H 53.92360063229643 180.8282779035475 48.075245045353455 H 0.0 **** 0.06
37019 H 53.4283278726723 179.99980362278524 49.57126368746981 H 0.0 **** 0.06
37020 H 52.237548608772954 180.2969492941422 48.282000841999434 H 0.0 **** 0.06
37021 C 69.3010161033244 5.445554159504184 57.12934299820047 C 0.0 **** -0.24
37022 H 70.07665047288305 4.680691977203253 57.15229574508129 H 0.0 **** 0.06
37023 H 69.01461161983866 5.7040711824840145 58.14893708905437 H 0.0 **** 0.06
37024 H 68.4309682032461 5.064248769717935 56.592781183860865 H 0.0 **** 0.06
37025 H 69.68066254384667 6.332211060632218 56.62173310947239 H 0.0 **** 0.06
37026 C 8.17241148714028 169.47316203418308 62.05555341115962 C 0.0 **** -0.24
37027 H 7.719774706912268 168.50639734614822 62.27491989766895 H 0.0 **** 0.06
37028 H 7.421402056485668 170.13687977060818 61.62525895607905 H 0.0 **** 0.06
37029 H 8.988776456272923 169.33879297797003 61.3450438033459 H 0.0 **** 0.06
37030 H 8.560675867157201 169.9105915106899 62.975974473414794 H 0.0 **** 0.06
37031 C 43.207067360061785 64.91841433479004 130.78040106719712 C 0.0 **** -0.24
37032 H 43.56300024139888 64.05790963921527 130.2138720428605 H 0.0 **** 0.06
37033 H 43.65049126156141 64.90664903370708 131.77553949030914 H 0.0 **** 0.06
37034 H 42.120970975369005 64.87247112041882 130.86609568337664 H 0.0 **** 0.06
37035 H 43.49289446378491 65.83561959874072 130.26570790820884 H 0.0 **** 0.06
37036 C 174.2136118215913 172.04730633199395 76.63275769790525 C 0.0 **** -0.24
37037 H 174.30748909201344 170.97150507584843 76.48782192762434 H 0.0 **** 0.06
37038 H 174.57504302593577 172.56618433186583 75.74406831389179 H 0.0 **** 0.06
37039 H 174.80471555000136 172.35074486597466 77.49679017365128 H 0.0 **** 0.06
37040 H 173.1668449591865 172.3009580429609 76.80099156268882 H 0.0 **** 0.06
37041 C 162.8134536397371 90.47529216835619 189.38398439233998 C 0.0 **** -0.24
37042 H 163.73180371816682 90.97996307329606 189.68291595429992 H 0.0 **** 0.06
37043 H 161.97079634330467 91.15952821648597 189.49157356837145 H 0.0 **** 0.06
37044 H 162.65597227778437 89.60183021728002 190.01743805472933 H 0.0 **** 0.06
37045 H 162.89537832557676 90.15892648020744 188.34364415892594 H 0.0 **** 0.06
37046 C 44.506563742966165 179.3714545628477 108.5928222121627 C 0.0 **** -0.24
37047 H 43.74258615449784 178.71723154337138 109.01236977623901 H 0.0 **** 0.06
37048 H 45.15066224961518 179.73700810133823 109.39320301413713 H 0.0 **** 0.06
37049 H 44.02957271418879 180.2150547407856 108.0953235187128 H 0.0 **** 0.06
37050 H 45.1051085811295 178.81484411039787 107.8710039631022 H 0.0 **** 0.06
37051 C 55.25560595739432 135.73632465477735 141.11375151208495 C 0.0 **** -0.24
37052 H 55.951523988130646 135.13730775996353 140.52516628632964 H 0.0 **** 0.06
37053 H 54.570734498010836 135.07738815144396 141.64615401085018 H 0.0 **** 0.06
37054 H 54.689477024610085 136.39072836336192 140.44993487474045 H 0.0 **** 0.06
37055 H 55.81238530905023 136.33958608841 141.83042861283406 H 0.0 **** 0.06
37056 C 102.95246499851129 11.175063761733782 185.6528131851985 C 0.0 **** -0.24
37057 H 102.63451862282508 10.24300112027396 186.12160850224848 H 0.0 **** 0.06
37058 H 103.87211049401179 11.00470483262552 185.0926224224923 H 0.0 **** 0.06
37059 H 103.12958448441634 11.925549624656298 186.4228289818655 H 0.0 **** 0.06
37060 H 102.17369060784233 11.525128384182153 184.9765374620397 H 0.0 **** 0.06
37061 C 196.33641416985452 123.9982597647379 34.2876891844254 C 0.0 **** -0.24
37062 H 196.49127962681996 124.6496896097471 35.14818470714303 H 0.0 **** 0.06
37063 H 196.06601334068657 124.60049577738513 33.42065467119464 H 0.0 **** 0.06
37064 H 195.53395943043824 123.29317458714516 34.506350984765675 H 0.0 **** 0.06
37065 H 197.25437219313275 123.44944497623905 34.0772822500102 H 0.0 **** 0.06
37066 C 115.60939166804286 41.215593857873145 86.5110665417657 C 0.0 **** -0.24
37067 H 114.77379998394724 40.51524290497002 86.50973401050058 H 0.0 **** 0.06
37068 H 115.29620090943794 42.154503619300854 86.05313454053768 H 0.0 **** 0.06
37069 H 116.43814916639204 40.79337369179136 85.94296195878533 H 0.0 **** 0.06
37070 H 115.92773042307542 41.40038005864828 87.53706029437191 H 0.0 **** 0.06
37071 C 107.71444697284963 13.26781754968681 53.14429138765814 C 0.0 **** -0.24
37072 H 106.66551701020813 13.490191581370475 52.94515466823482 H 0.0 **** 0.06
37073 H 108.21371183731412 13.008923428534395 52.210803785928704 H 0.0 **** 0.06
37074 H 107.78238491264284 12.431042659653649 53.838424566686655 H 0.0 **** 0.06
37075 H 108.19369173162985 14.143280315221716 53.582410194304444 H 0.0 **** 0.06
37076 C 8.906551209021956 44.37146830825213 147.24079775626342 C 0.0 **** -0.24
37077 H 9.192013065200342 43.80020640553272 148.12536663250233 H 0.0 **** 0.06
37078 H 9.798481037634076 44.79662424285941 146.77981260509446 H 0.0 **** 0.06
37079 H 8.227658090267113 45.17310537951748 147.53034361697598 H 0.0 **** 0.06
37080 H 8.408624524202764 43.712454044605394 146.52890947925937 H 0.0 **** 0.06
37081 C 48.52629503599189 41.19518503678023 10.287606136413032 C 0.0 **** -0.24
37082 H 49.298202965867404 41.00459067916441 11.033302873548003 H 0.0 **** 0.06
37083 H 48.76223629232935 42.112419331815374 9.747432397287803 H 0.0 **** 0.06
37084 H 47.56169802824074 41.30254213361076 10.782685651808052 H 0.0 **** 0.06
37085 H 48.4851581094626 40.36166592588117 9.586458273013989 H 0.0 **** 0.06
37086 C 143.16914201219257 85.88732756544502 68.44550600780207 C 0.0 **** -0.24
37087 H 144.15828503883282 86.32664702802398 68.57031041782295 H 0.0 **** 0.06
37088 H 143.10489728246725 84.96669668799211 69.0260282703594 H 0.0 **** 0.06
37089 H 143.00009755018652 85.66520505939567 67.3920121838106 H 0.0 **** 0.06
37090 H 142.41328817728345 86.59076148636828 68.7936731592153 H 0.0 **** 0.06
37091 C 1.7276850101779573 47.61334284565078 160.35134387630617 C 0.0 **** -0.24
37092 H 1.6934229768143894 48.1944907279738 161.2725962433015 H 0.0 **** 0.06
37093 H 2.621151079196416 46.98765920235121 160.3495888001246 H 0.0 **** 0.06
37094 H 1.7561857029216625 48.28993464074176 159.49642401726948 H 0.0 **** 0.06
37095 H 0.8420426375922432 46.98173239602073 160.28552214847568 H 0.0 **** 0.06
37096 C 25.58296956437482 72.76764186171982 125.46478772906212 C 0.0 **** -0.24
37097 H 25.063336245466388 72.65067601910462 126.41601950806034 H 0.0 **** 0.06
37098 H 26.547647620139173 72.26231822511573 125.51311947273106 H 0.0 **** 0.06
37099 H 25.737011898454455 73.82822065621637 125.26296778967014 H 0.0 **** 0.06
37100 H 24.981775329802332 72.3300967894406 124.66712206787315 H 0.0 **** 0.06
37101 C 123.50221045063597 28.64085713021896 98.16225464624947 C 0.0 **** -0.24
37102 H 123.31378012568948 28.46523039526889 97.10369859257142 H 0.0 **** 0.06
37103 H 123.8676123436311 27.722950283626986 98.62362345518909 H 0.0 **** 0.06
37104 H 122.57787203964708 28.950397909331684 98.64907563092598 H 0.0 **** 0.06
37105 H 124.25179413703759 29.424989768175976 98.27236369204763 H 0.0 **** 0.06
37106 C 186.59508235002568 138.08012485343772 110.39301193903111 C 0.0 **** -0.24
37107 H 186.6546479418498 137.059572382485 110.77010908674444 H 0.0 **** 0.06
37108 H 186.93994834341981 138.77161865190087 111.16093343727502 H 0.0 **** 0.06
37109 H 185.561441061223 138.31131530896167 110.13313433372758 H 0.0 **** 0.06
37110 H 187.2229335634971 138.1765176020585 109.50688215884657 H 0.0 **** 0.06
37111 C 175.6551509319222 174.00128034167216 120.70558266722568 C 0.0 **** -0.24
37112 H 175.64245489906992 175.04666347046702 121.0141723779204 H 0.0 **** 0.06
37113 H 175.88673794315187 173.37245924291014 121.5658792365281 H 0.0 **** 0.06
37114 H 176.4127004379214 173.8586378895554 119.93540895703018 H 0.0 **** 0.06
37115 H 174.67718455174372 173.72849481368286 120.30919082302506 H 0.0 **** 0.06
37116 C 138.08874357146374 170.27222660789326 115.71734517293586 C 0.0 **** -0.24
37117 H 137.99853580393915 171.1117126599287 115.02803797897582 H 0.0 **** 0.06
37118 H 137.85645986188746 169.34457518702416 115.19236722575118 H 0.0 **** 0.06
37119 H 137.3935093953055 170.40528512233655 116.54529657308214 H 0.0 **** 0.06
37120 H 139.107059996562 170.22634391799522 116.10285925914775 H 0.0 **** 0.06
37121 C 76.98469451172961 115.0127394266824 35.62714286943819 C 0.0 **** -0.24
37122 H 76.04883271254472 114.45472208442152 35.601844338332114 H 0.0 **** 0.06
37123 H 76.98016217547675 115.69049683028118 36.480860647426255 H 0.0 **** 0.06
37124 H 77.08825773712339 115.5884374627384 34.70662228714252 H 0.0 **** 0.06
37125 H 77.81936749111225 114.31836425961524 35.71775635831551 H 0.0 **** 0.06
37126 C 19.090390643131343 97.25305670453781 171.834065886956 C 0.0 **** -0.24
37127 H 19.078306358502886 98.34228182263752 171.78881872834535 H 0.0 **** 0.06
37128 H 19.275736302495076 96.8512417177177 170.83768925361397 H 0.0 **** 0.06
37129 H 18.12728518547658 96.89353037285812 172.1976444843097 H 0.0 **** 0.06
37130 H 19.879572616761067 96.92628424576617 172.51028717340603 H 0.0 **** 0.06
37131 C 111.02367934825068 10.742865700513988 160.79126866732253 C 0.0 **** -0.24
37132 H 111.3802973546984 11.499202205281478 161.49027894308983 H 0.0 **** 0.06
37133 H 109.93936032649762 10.66139439972767 160.86622443039386 H 0.0 **** 0.06
37134 H 111.47860851566006 9.782377682219987 161.03321886941757 H 0.0 **** 0.06
37135 H 111.29799596397527 11.028795766603025 159.77607308827348 H 0.0 **** 0.06
37136 C 97.85237735156215 3.0099894473888185 5.092968973119525 C 0.0 **** -0.24
37137 H 98.5679640210561 2.196621120170505 5.215326547038103 H 0.0 **** 0.06
37138 H 97.2447625900192 2.8287164090545787 4.206540147334692 H 0.0 **** 0.06
37139 H 98.38965512282715 3.952149202883959 4.98054881150432 H 0.0 **** 0.06
37140 H 97.20895918331041 3.0609585385896594 5.971292884581146 H 0.0 **** 0.06
37141 C 87.19206688442591 151.0877292915523 55.061141160023396 C 0.0 **** -0.24
37142 H 86.30848434595339 150.48292749865172 54.858900322735224 H 0.0 **** 0.06
37143 H 87.04806673754513 152.08828866648432 54.65220522557286 H 0.0 **** 0.06
37144 H 88.06274304912665 150.62548430510074 54.59524064878508 H 0.0 **** 0.06
37145 H 87.34873270295526 151.15473523736992 56.13739795599639 H 0.0 **** 0.06
37146 C 130.23507830078145 153.10119243777578 162.57280320231177 C 0.0 **** -0.24
37147 H 131.25052905381327 152.70465131722023 162.5902847048448 H 0.0 **** 0.06
37148 H 129.99338367470622 153.52220468436866 163.54927035539586 H 0.0 **** 0.06
37149 H 129.53522832521182 152.29958945985356 162.33907400922362 H 0.0 **** 0.06
37150 H 130.1622776834309 153.8801986623999 161.81370830682374 H 0.0 **** 0.06
37151 C 134.23827865577567 88.19109702757464 30.17856801417622 C 0.0 **** -0.24
37152 H 135.00326621220006 88.03510720487381 29.41689096292572 H 0.0 **** 0.06
37153 H 134.70831548091974 88.23918661165018 31.160123629975374 H 0.0 **** 0.06
37154 H 133.5285260952486 87.36368569665731 30.15527655888161 H 0.0 **** 0.06
37155 H 133.71342004794636 89.12535033023215 29.979204302575454 H 0.0 **** 0.06
37156 C 93.26761939759055 9.176533715311109 94.215276875422 C 0.0 **** -0.24
37157 H 93.96067810042416 10.012947424361982 94.31443563553321 H 0.0 **** 0.06
37158 H 92.78249437080888 9.220542802758786 93.24032273044023 H 0.0 **** 0.06
37159 H 92.5139173508745 9.2360197476373 95.00048533199097 H 0.0 **** 0.06
37160 H 93.81587975482049 8.238224381078027 94.30735774408052 H 0.0 **** 0.06
37161 C 115.92470276800202 5.176244189390047 94.26446725464669 C 0.0 **** -0.24
37162 H 116.12599483397665 4.804605341977975 93.25958479359372 H 0.0 **** 0.06
37163 H 114.9073544044889 4.909341923026602 94.55264288729938 H 0.0 **** 0.06
37164 H 116.03400884690612 6.260371236100042 94.27984247373817 H 0.0 **** 0.06
37165 H 116.62968082710094 4.7294348049134385 94.96463149657328 H 0.0 **** 0.06
37166 C 193.6463359905974 154.76598607593652 83.00155045155321 C 0.0 **** -0.24
37167 H 192.73544289714874 154.69069530191402 83.59487307828073 H 0.0 **** 0.06
37168 H 193.39876891610592 155.1144046773653 81.9986188915926 H 0.0 **** 0.06
37169 H 194.1213830405916 153.7863290970593 82.9389308646825 H 0.0 **** 0.06
37170 H 194.32981061153217 155.4711091386988 83.47391744605594 H 0.0 **** 0.06
37171 C 58.76890771245738 45.59283299693942 36.662380332100724 C 0.0 **** -0.24
37172 H 58.7604393890316 44.522780408231654 36.45550011915404 H 0.0 **** 0.06
37173 H 59.25651189257333 46.117524065364194 35.84073251830682 H 0.0 **** 0.06
37174 H 59.3140559942881 45.77849608071779 37.587997023513935 H 0.0 **** 0.06
37175 H 57.74497128831946 45.950150890502044 36.76575236223883 H 0.0 **** 0.06
37176 C 162.24660076431257 80.98070731648392 11.072832908313963 C 0.0 **** -0.24
37177 H 161.78201544439878 80.81430098587921 10.100731522222247 H 0.0 **** 0.06
37178 H 163.02908022051082 80.23874904163651 11.233651168920595 H 0.0 **** 0.06
37179 H 161.49263565248503 80.88895155667026 11.85485668058947 H 0.0 **** 0.06
37180 H 162.68056509149085 81.9804138578022 11.100912892154824 H 0.0 **** 0.06
37181 C 79.94129582391673 170.7572343159942 62.780469201922216 C 0.0 **** -0.24
37182 H 80.34827450335604 170.15999287960136 63.59575484516053 H 0.0 **** 0.06
37183 H 80.54284737693459 171.6573912084501 62.654958341905726 H 0.0 **** 0.06
37184 H 78.9133693616545 171.03567440147498 63.012660908745815 H 0.0 **** 0.06
37185 H 79.96077289374782 170.17579436618578 61.85949586934248 H 0.0 **** 0.06
37186 C 96.52130388809184 179.598519564592 69.11881995629352 C 0.0 **** -0.24
37187 H 96.80934501240733 178.78162108618724 68.45657990522398 H 0.0 **** 0.06
37188 H 96.14689639565978 180.43285979499655 68.5247053905218 H 0.0 **** 0.06
37189 H 97.38944794386668 179.92264446289153 69.6943055514561 H 0.0 **** 0.06
37190 H 95.74172268743746 179.25715639006634 69.79932271231138 H 0.0 **** 0.06
37191 C 57.508424677772666 105.63454261426463 99.96740569239367 C 0.0 **** -0.24
37192 H 57.25971629525594 105.51343144140372 101.02201790557643 H 0.0 **** 0.06
37193 H 58.534260272962 105.30893068733903 99.79698013097217 H 0.0 **** 0.06
37194 H 57.40796077331672 106.68350532938996 99.68764343428737 H 0.0 **** 0.06
37195 H 56.82996928067908 105.03108516880522 99.36353394269057 H 0.0 **** 0.06
37196 C 101.4286579640434 60.301268242597544 112.09289336965406 C 0.0 **** -0.24
37197 H 101.75015542652599 59.46033504317401 112.70587573367246 H 0.0 **** 0.06
37198 H 102.05993783523147 60.36650253252188 111.20643925120643 H 0.0 **** 0.06
37199 H 101.51228962839687 61.22388580290851 112.66762571936718 H 0.0 **** 0.06
37200 H 100.39104632843089 60.15409965370441 111.79041160335964 H 0.0 **** 0.06
37201 C 12.176896473860694 95.11789173132104 52.835540597126965 C 0.0 **** -0.24
37202 H 12.47823717404603 94.29132630753793 52.1924239246363 H 0.0 **** 0.06
37203 H 11.957961627759289 94.74102688621065 53.83409509324554 H 0.0 **** 0.06
37204 H 11.286376232403882 95.59192661668612 52.42234292379467 H 0.0 **** 0.06
37205 H 12.984019182596398 95.84769645092729 52.891098368913504 H 0.0 **** 0.06
37206 C 33.620670721762366 60.13758971146706 74.61256218963932 C 0.0 **** -0.24
37207 H 32.77330528733917 59.45910882596519 74.70987192750138 H 0.0 **** 0.06
37208 H 34.1934458744265 60.1391685922909 75.5395458994153 H 0.0 **** 0.06
37209 H 33.25838713051448 61.14489154879641 74.4060451197341 H 0.0 **** 0.06
37210 H 34.25782317202095 59.80564472401801 73.79186431757141 H 0.0 **** 0.06
37211 C 23.481886061387087 22.618824832482915 96.56013198203266 C 0.0 **** -0.24
37212 H 22.985856133432208 21.758574060404612 96.10941408102428 H 0.0 **** 0.06
37213 H 23.024660993559962 22.836282692060365 97.52544436694939 H 0.0 **** 0.06
37214 H 23.377076432402646 23.48224739713774 95.90385301768919 H 0.0 **** 0.06
37215 H 24.539841409035674 22.394845527245707 96.70048673928187 H 0.0 **** 0.06
37216 C 152.0117368355319 28.847524707515348 19.785247588263317 C 0.0 **** -0.24
37217 H 151.80024036315496 29.40091049809891 20.700295179977218 H 0.0 **** 0.06
37218 H 152.8321532818916 29.329015782997303 19.251860384099444 H 0.0 **** 0.06
37219 H 151.12355559872313 28.836969303813817 19.153276574654612 H 0.0 **** 0.06
37220 H 152.291242173282 27.824105479168082 20.035913774200623 H 0.0 **** 0.06
37221 C 126.24188981426704 14.912095554243606 133.12803798281666 C 0.0 **** -0.24
37222 H 125.21352551686638 15.005711107284128 132.78060790543415 H 0.0 **** 0.06
37223 H 126.91797769735953 15.323104122350458 132.37772216068026 H 0.0 **** 0.06
37224 H 126.47619970749977 13.860387325016141 133.29057826057644 H 0.0 **** 0.06
37225 H 126.36000417095028 15.459913615324055 134.06258067226932 H 0.0 **** 0.06
37226 C 149.22322401497374 159.87372833580918 14.401698055485426 C 0.0 **** -0.24
37227 H 148.15186083952335 160.06999152318934 14.443368060381715 H 0.0 **** 0.06
37228 H 149.40335167727093 158.8096970613915 14.553336256058103 H 0.0 **** 0.06
37229 H 149.72711676021783 160.44368567960646 15.183313973978272 H 0.0 **** 0.06
37230 H 149.60864287192996 160.17319399908246 13.428022922822699 H 0.0 **** 0.06
37231 C 191.08329646892219 77.0119347489757 131.94991860042092 C 0.0 **** -0.24
37232 H 190.25531407392285 77.57826713017823 131.52313003787995 H 0.0 **** 0.06
37233 H 191.79656827352426 77.69929029209874 132.40597056688196 H 0.0 **** 0.06
37234 H 191.57898778695977 76.44470150504497 131.16133678921645 H 0.0 **** 0.06
37235 H 190.702619100711 76.3267616556401 132.70654151105043 H 0.0 **** 0.06
37236 C 85.45405546911365 133.3359114247101 113.3737368952018 C 0.0 **** -0.24
37237 H 86.51948330380853 133.19459841903748 113.18989766347067 H 0.0 **** 0.06
37238 H 85.26425415246285 133.30884306075285 114.44662572481232 H 0.0 **** 0.06
37239 H 84.89238222720027 132.54064897823682 112.88367925337883 H 0.0 **** 0.06
37240 H 85.14237186051847 134.30039233751813 112.97297065818242 H 0.0 **** 0.06
37241 C 19.611716570534895 111.64538632187501 52.922127646825174 C 0.0 **** -0.24
37242 H 20.225507688865974 112.46353851905587 52.54375725550335 H 0.0 **** 0.06
37243 H 19.597404403205545 110.83506855878201 52.19311875063542 H 0.0 **** 0.06
37244 H 18.595549457053394 112.00212129688978 53.08987518060809 H 0.0 **** 0.06
37245 H 20.029283113830843 111.28285645991707 53.861497097924484 H 0.0 **** 0.06
37246 C 149.964799229139 70.77521810634693 17.041345842444684 C 0.0 **** -0.24
37247 H 150.94618964749324 71.246763840145 17.08935774966278 H 0.0 **** 0.06
37248 H 150.07830455038982 69.72576591190744 16.76966530449039 H 0.0 **** 0.06
37249 H 149.3554719469061 71.28123565768824 16.29144837125574 H 0.0 **** 0.06
37250 H 149.47848426490955 70.84977981515584 18.013772179109196 H 0.0 **** 0.06
37251 C 138.37934634164031 87.69183705874656 184.7459295828928 C 0.0 **** -0.24
37252 H 138.49897370633477 87.45900548489374 185.80419299127848 H 0.0 **** 0.06
37253 H 138.4328972764771 88.77182607829192 184.60351213955602 H 0.0 **** 0.06
37254 H 137.412573458137 87.32705636745274 184.40038088870386 H 0.0 **** 0.06
37255 H 139.17491864386568 87.21030271746938 184.17624800572867 H 0.0 **** 0.06
37256 C 99.51028574164178 142.99249372394897 104.13329320237622 C 0.0 **** -0.24
37257 H 98.58972318681322 143.4121450871299 103.72939226453295 H 0.0 **** 0.06
37258 H 99.5188759614148 141.91401204422132 103.97450036991683 H 0.0 **** 0.06
37259 H 99.56735529231062 143.20260046481647 105.20236240214916 H 0.0 **** 0.06
37260 H 100.3663826928979 143.44088513454682 103.62903053449838 H 0.0 **** 0.06
37261 C 64.02882895178863 103.52325356910282 11.320631430699137 C 0.0 **** -0.24
37262 H 63.846005024112856 104.33538223639155 10.617472055718679 H 0.0 **** 0.06
37263 H 64.83891441536662 102.89619271258653 10.947612776029189 H 0.0 **** 0.06
37264 H 63.12449846377535 102.92364342115616 11.425324915135434 H 0.0 **** 0.06
37265 H 64.30552531983477 103.93720317917692 12.28999230838204 H 0.0 **** 0.06
37266 C 55.680757975702306 22.569239236677845 197.779031920352 C 0.0 **** -0.24
37267 H 54.80860003580199 21.915807483124695 197.76235410540397 H 0.0 **** 0.06
37268 H 56.561123514411975 22.00717425487585 197.46813137936158 H 0.0 **** 0.06
37269 H 55.829350028947886 22.95027307952995 198.78984758820286 H 0.0 **** 0.06
37270 H 55.52212380000316 23.404316597584454 197.09630159763705 H 0.0 **** 0.06
37271 C 179.491752608192 91.27709934148186 107.85107790440458 C 0.0 **** -0.24
37272 H 179.81636381800692 92.3136328760014 107.94453637325716 H 0.0 **** 0.06
37273 H 180.3450572289817 90.61455022843018 108.00436075787815 H 0.0 **** 0.06
37274 H 179.07911101681808 91.11397253651955 106.85521232293706 H 0.0 **** 0.06
37275 H 178.7288568034803 91.06672955124952 108.60052651592571 H 0.0 **** 0.06
37276 C 125.08392069425037 150.20348104904969 39.952888638087174 C 0.0 **** -0.24
37277 H 125.00320086618038 149.38449759453354 40.66702943262695 H 0.0 **** 0.06
37278 H 125.41286168342438 149.8147439416116 38.98931146798772 H 0.0 **** 0.06
37279 H 125.8071226777351 150.93327915822223 40.31694535701324 H 0.0 **** 0.06
37280 H 124.1113804258433 150.6822086023004 39.838590615745304 H 0.0 **** 0.06
37281 C 16.786580632089738 192.58938070006414 145.41881748169845 C 0.0 **** -0.24
37282 H 17.17929848110542 191.60942419067558 145.1492296592199 H 0.0 **** 0.06
37283 H 17.518616788280056 193.3564027132755 145.16474073400553 H 0.0 **** 0.06
37284 H 16.587155056911584 192.6183505987675 146.4906289833625 H 0.0 **** 0.06
37285 H 15.862472840650739 192.77314381462665 144.87188278406185 H 0.0 **** 0.06
37286 C 57.88135286507065 106.80816506250943 181.47371829371139 C 0.0 **** -0.24
37287 H 58.4191917931621 106.23175553648156 182.22745834264637 H 0.0 **** 0.06
37288 H 58.56990539494808 107.09728130704124 180.67883344415932 H 0.0 **** 0.06
37289 H 57.45939991545919 107.70148461918961 181.9333861566614 H 0.0 **** 0.06
37290 H 57.07895596203991 106.20014061932744 181.0565514719582 H 0.0 **** 0.06
37291 C 95.8146195691246 178.24074869365398 166.26813566809085 C 0.0 **** -0.24
37292 H 96.2872747329186 177.87351534058433 165.35648251564027 H 0.0 **** 0.06
37293 H 95.14893580112437 179.06867015955493 166.02337076409887 H 0.0 **** 0.06
37294 H 96.58179925406307 178.58335417142237 166.96271216204457 H 0.0 **** 0.06
37295 H 95.24090332059194 177.43670497722283 166.72791608034754 H 0.0 **** 0.06
37296 C 80.2813925398197 80.7171936065568 158.5959123359396 C 0.0 **** -0.24
37297 H 80.761329694501 80.43627650352809 159.5335213145603 H 0.0 **** 0.06
37298 H 80.41052679421 81.78629602288248 158.42767724155996 H 0.0 **** 0.06
37299 H 79.21883848483265 80.48223625266098 158.64663290609155 H 0.0 **** 0.06
37300 H 80.73647389314635 80.16272024074121 157.77487278601677 H 0.0 **** 0.06
37301 C 37.48148826980241 106.71547017580181 189.24917989827057 C 0.0 **** -0.24
37302 H 37.002952658953404 107.60760544618469 188.84697350859025 H 0.0 **** 0.06
37303 H 38.499045407787406 106.95675403677063 189.55693996261863 H 0.0 **** 0.06
37304 H 37.508067285474965 105.94130861691349 188.48261997944277 H 0.0 **** 0.06
37305 H 36.91649057604337 106.3564754515358 190.1094328128445 H 0.0 **** 0.06
37306 C 94.092929623038 143.1599306304517 123.99961042573841 C 0.0 **** -0.24
37307 H 94.82322775918712 142.40317316594803 123.7127490323619 H 0.0 **** 0.06
37308 H 94.51822528977632 144.15189212887088 123.84361142713283 H 0.0 **** 0.06
37309 H 93.83592159256486 143.03529262820862 125.0518356570202 H 0.0 **** 0.06
37310 H 93.19654571521508 143.04838606848045 123.39068649513297 H 0.0 **** 0.06
37311 C 36.83914297881422 35.94054516170533 23.382463304579062 C 0.0 **** -0.24
37312 H 37.37021586515395 35.335284021277744 24.118000694217983 H 0.0 **** 0.06
37313 H 37.52792661692091 36.6590573295515 22.938160427530022 H 0.0 **** 0.06
37314 H 36.0223690341664 36.47233139699938 23.87140443048162 H 0.0 **** 0.06
37315 H 36.435850961145775 35.29256573615004 22.60380425811161 H 0.0 **** 0.06
37316 C 9.451631191718377 101.82515519521797 62.52119606963282 C 0.0 **** -0.24
37317 H 9.384465219014487 102.5784217427607 61.73637130077361 H 0.0 **** 0.06
37318 H 9.39890471250871 100.83204007014265 62.075567368652116 H 0.0 **** 0.06
37319 H 8.624303059542882 101.95518250659009 63.21965778416825 H 0.0 **** 0.06
37320 H 10.39677657007445 101.93695527779636 63.05152107824563 H 0.0 **** 0.06
37321 C 103.80608135396142 199.05089289898132 163.22788576315503 C 0.0 **** -0.24
37322 H 103.86310511473664 199.80388616558304 162.442096920579 H 0.0 **** 0.06
37323 H 104.32924967278609 198.14984690999995 162.90604614264714 H 0.0 **** 0.06
37324 H 102.76083149334352 198.81253764900345 163.42732048515632 H 0.0 **** 0.06
37325 H 104.27119212796083 199.43702149450567 164.13512077489844 H 0.0 **** 0.06
37326 C 13.884425859577846 111.29721894388115 150.1149839673131 C 0.0 **** -0.24
37327 H 14.715915432977908 111.06039012676172 150.7798470459859 H 0.0 **** 0.06
37328 H 13.034978830986006 111.64232325026376 150.70450449079087 H 0.0 **** 0.06
37329 H 13.60185193684572 110.40465626089252 149.55672191505974 H 0.0 **** 0.06
37330 H 14.187483188286649 112.0800853312976 149.42012776252062 H 0.0 **** 0.06
37331 C 155.7343862443621 2.5275521707393978 28.440986614044647 C 0.0 **** -0.24
37332 H 156.66708870672153 2.361748469860345 28.981048604196758 H 0.0 **** 0.06
37333 H 155.30464747360247 3.4817583477718017 28.746071596305285 H 0.0 **** 0.06
37334 H 155.0346112578272 1.7234862134304478 28.670692089918646 H 0.0 **** 0.06
37335 H 155.93221915582927 2.542719271311398 27.36925027611548 H 0.0 **** 0.06
37336 C 119.58833181659085 114.67637658189744 124.70657169951204 C 0.0 **** -0.24
37337 H 118.50275008749432 114.70036948461666 124.79869835408789 H 0.0 **** 0.06
37338 H 119.89913894728824 115.34710811422394 123.90535086315339 H 0.0 **** 0.06
37339 H 119.91060910770324 113.66157704679983 124.47699405153767 H 0.0 **** 0.06
37340 H 120.03900248549473 114.99805822543954 125.64495623163103 H 0.0 **** 0.06
37341 C 53.76672259643641 164.5478804531317 96.67762383447888 C 0.0 **** -0.24
37342 H 53.03822922789095 165.12861322985492 97.24321337716177 H 0.0 **** 0.06
37343 H 54.763951597929974 164.95468237149208 96.8457969685347 H 0.0 **** 0.06
37344 H 53.52726286371069 164.59941042377716 95.61540380769335 H 0.0 **** 0.06
37345 H 53.73707899249979 163.5087131370522 97.00700545640177 H 0.0 **** 0.06
37346 C 86.46705497985593 63.51497642439256 161.10705778369288 C 0.0 **** -0.24
37347 H 87.03856155079706 63.168467487279486 161.96875349686758 H 0.0 **** 0.06
37348 H 85.93736163381075 64.4314392240982 161.36860050513462 H 0.0 **** 0.06
37349 H 85.74869159366196 62.749742591250595 160.8164569155553 H 0.0 **** 0.06
37350 H 87.14509532559356 63.71115889611349 160.27705935687277 H 0.0 **** 0.06
37351 C 36.34641602847124 90.29514332248868 24.324120097771043 C 0.0 **** -0.24
37352 H 35.76277397850893 90.77023647181852 23.535248022210794 H 0.0 **** 0.06
37353 H 35.91805478149904 90.5471253064859 25.29429400323167 H 0.0 **** 0.06
37354 H 37.37579026074273 90.65112138659265 24.27756906430011 H 0.0 **** 0.06
37355 H 36.329367213334436 89.21464254952684 24.18782607016766 H 0.0 **** 0.06
37356 C 37.71173398695635 160.9649405106055 139.49988002010562 C 0.0 **** -0.24
37357 H 38.09553261242917 161.3160316149636 140.45769280506877 H 0.0 **** 0.06
37358 H 37.22205484458823 161.78996912500466 138.98182517628405 H 0.0 **** 0.06
37359 H 36.993183409855874 160.16292820842637 139.66809717700426 H 0.0 **** 0.06
37360 H 38.53705132002759 160.59212232531397 138.8935025988396 H 0.0 **** 0.06
37361 C 32.46464862004575 134.5106905147038 116.98588112825703 C 0.0 **** -0.24
37362 H 33.476002854853746 134.10388465878714 116.97637868100318 H 0.0 **** 0.06
37363 H 31.746690831355423 133.69694604184247 117.08469010480434 H 0.0 **** 0.06
37364 H 32.28020706191323 135.04778778538753 116.05554166650393 H 0.0 **** 0.06
37365 H 32.35607856710729 135.19525909088952 117.8276935250251 H 0.0 **** 0.06
37366 C 148.15315076308974 128.85525327976407 104.78043449057296 C 0.0 **** -0.24
37367 H 148.16689767964363 128.1949149992925 103.91329144499903 H 0.0 **** 0.06
37368 H 147.43602435838613 129.65879111658447 104.6123739400054 H 0.0 **** 0.06
37369 H 149.14581967639333 129.27952612499183 104.92958761266303 H 0.0 **** 0.06
37370 H 147.86314049946736 128.28840589108614 105.66446262467716 H 0.0 **** 0.06
37371 C 15.989640281164313 50.594444716194516 133.91326090826283 C 0.0 **** -0.24
37372 H 16.77008356575506 51.235463357422006 133.50318766523344 H 0.0 **** 0.06
37373 H 16.253921137278766 50.307189606824394 134.93152994834145 H 0.0 **** 0.06
37374 H 15.893707440045972 49.70091825903533 133.29641567448243 H 0.0 **** 0.06
37375 H 15.043182044953213 51.13373433641489 133.92133334648042 H 0.0 **** 0.06
37376 C 109.48856628398454 58.27936788481216 85.01129530468293 C 0.0 **** -0.24
37377 H 109.07504123194394 58.512512652538334 84.03033494818652 H 0.0 **** 0.06
37378 H 109.85344166734049 57.252074613309205 85.01660376420512 H 0.0 **** 0.06
37379 H 108.71359431493335 58.39437608059846 85.76834366449674 H 0.0 **** 0.06
37380 H 110.31200109204232 58.95987539935001 85.22813931093685 H 0.0 **** 0.06
37381 C 191.1364189051067 194.1780791864394 78.99554156624583 C 0.0 **** -0.24
37382 H 191.9807796494284 194.6732459319578 78.51605068133188 H 0.0 **** 0.06
37383 H 190.97392727594425 194.61254345141865 79.98223653877119 H 0.0 **** 0.06
37384 H 191.34873770308567 193.11376200656068 79.09635004326663 H 0.0 **** 0.06
37385 H 190.2418759792179 194.31508917318308 78.38684054790286 H 0.0 **** 0.06
37386 C 92.65919322401336 34.44553441915207 122.45860433121885 C 0.0 **** -0.24
37387 H 92.97013556133174 33.40140155006864 122.49751581549629 H 0.0 **** 0.06
37388 H 91.8005788066649 34.544605421687635 121.79379539579361 H 0.0 **** 0.06
37389 H 93.48163434434628 35.05609529664184 122.08491901356138 H 0.0 **** 0.06
37390 H 92.3845565074459 34.77979942171254 123.45914981619137 H 0.0 **** 0.06
37391 C 164.49473811595098 39.576585239631015 177.0702743326601 C 0.0 **** -0.24
37392 H 165.13487465021512 40.449895239054115 177.1995398249357 H 0.0 **** 0.06
37393 H 164.00048103734127 39.345380052274464 178.01379952119447 H 0.0 **** 0.06
37394 H 165.1004332188007 38.725635714182374 176.75846344103368 H 0.0 **** 0.06
37395 H 163.74464645612693 39.78659335995468 176.3077300545843 H 0.0 **** 0.06
37396 C 88.83645406882974 174.46741762735394 130.63044242831958 C 0.0 **** -0.24
37397 H 87.86973219293768 174.69230012476166 130.1798035912771 H 0.0 **** 0.06
37398 H 88.93964017092142 173.3885137519032 130.74821232218534 H 0.0 **** 0.06
37399 H 88.90309661765775 174.94805567883364 131.60636328145935 H 0.0 **** 0.06
37400 H 89.63273022084906 174.8406608918972 129.98549323343667 H 0.0 **** 0.06
37401 C 5.539851970829737 147.4534368904469 115.21691101978217 C 0.0 **** -0.24
37402 H 4.972792913873064 146.71186091692033 114.6523307951955 H 0.0 **** 0.06
37403 H 5.182523404724151 148.45214883864364 114.96695219995851 H 0.0 **** 0.06
37404 H 6.5969194630103445 147.37033869703802 114.96409746807257 H 0.0 **** 0.06
37405 H 5.406884591476668 147.27528828404743 116.2844008093179 H 0.0 **** 0.06
37406 C 116.03635854142019 103.05310598399379 1.3332284227065259 C 0.0 **** -0.24
37407 H 116.96646931241767 103.60716025341176 1.2062421839698345 H 0.0 **** 0.06
37408 H 115.46854539732871 103.47969489929613 2.160411488479724 H 0.0 **** 0.06
37409 H 116.26301573394326 102.008275780937 1.547891107570706 H 0.0 **** 0.06
37410 H 115.44820928812746 103.11565807209908 0.41754541046867644 H 0.0 **** 0.06
37411 C 16.337068315132925 187.79327503338527 57.910184979333195 C 0.0 **** -0.24
37412 H 15.482045027173186 188.4090110825713 58.189066628552126 H 0.0 **** 0.06
37413 H 16.19078410290568 187.40393920978053 56.90179355458953 H 0.0 **** 0.06
37414 H 16.43178274981679 186.9643164514584 58.61059021743969 H 0.0 **** 0.06
37415 H 17.24406498790981 188.39771414220994 57.93777294133898 H 0.0 **** 0.06
37416 C 130.82318097903607 159.13686829947457 183.95032921189235 C 0.0 **** -0.24
37417 H 131.67405909503782 158.76554100745733 183.37961199181092 H 0.0 **** 0.06
37418 H 130.90096905186823 158.79537310654123 184.98307397981839 H 0.0 **** 0.06
37419 H 129.89939640720854 158.76092983525933 183.51122329555497 H 0.0 **** 0.06
37420 H 130.81851686110542 160.2265655471132 183.92768337186183 H 0.0 **** 0.06
37421 C 43.56744334695574 158.7466952786635 123.91826547040921 C 0.0 **** -0.24
37422 H 43.87086128600069 157.97036623207794 124.62164195421894 H 0.0 **** 0.06
37423 H 44.3543660280186 159.49723536829026 123.84477433404913 H 0.0 **** 0.06
37424 H 42.64830255744812 159.21540531312706 124.2689815695602 H 0.0 **** 0.06
37425 H 43.397529484468976 158.30106377865735 122.93767353301496 H 0.0 **** 0.06
37426 C 146.85791822357578 38.0123192358821 95.8501252468798 C 0.0 **** -0.24
37427 H 146.5654397981927 39.048127943118914 96.02199837587449 H 0.0 **** 0.06
37428 H 147.3682890907452 37.628272313499394 96.73377746185145 H 0.0 **** 0.06
37429 H 147.52754243498438 37.96200423835876 94.99209583123454 H 0.0 **** 0.06
37430 H 145.96956050155848 37.412444418112386 95.65353574086791 H 0.0 **** 0.06
37431 C 178.46546655701485 18.88713592226503 143.65268036797676 C 0.0 **** -0.24
37432 H 178.51192169316317 19.7957701530151 144.25332622623424 H 0.0 **** 0.06
37433 H 179.47773158989764 18.53467446503447 143.45022013593245 H 0.0 **** 0.06
37434 H 177.95934733404255 19.100069312325445 142.71103851053016 H 0.0 **** 0.06
37435 H 177.9150292362047 18.120953846135933 144.19701337797292 H 0.0 **** 0.06
37436 C 2.9018014031472035 144.0930164990499 76.42026495091446 C 0.0 **** -0.24
37437 H 2.2164389662048762 144.89258744138775 76.7018609833653 H 0.0 **** 0.06
37438 H 3.374348786048067 143.68748223585203 77.31531334694242 H 0.0 **** 0.06
37439 H 3.6676045959820556 144.4895270664063 75.75278345601897 H 0.0 **** 0.06
37440 H 2.3495944765336674 143.30303368134227 75.91136875557211 H 0.0 **** 0.06
37441 C 152.88101138012456 192.70509086024336 95.39414864951905 C 0.0 **** -0.24
37442 H 153.47872731265852 191.80009239522377 95.2883558748928 H 0.0 **** 0.06
37443 H 153.49161363144918 193.5747819382494 95.14828276075758 H 0.0 **** 0.06
37444 H 152.52730392251195 192.78763470025694 96.42213855406686 H 0.0 **** 0.06
37445 H 152.0264764050508 192.65773021693028 94.71880678197016 H 0.0 **** 0.06
37446 C 149.05728146000553 126.23740661075942 174.10463094665943 C 0.0 **** -0.24
37447 H 148.9187954777907 127.2938885537817 174.33694591622185 H 0.0 **** 0.06
37448 H 149.52563378327193 126.13908787874209 173.12590208469837 H 0.0 **** 0.06
37449 H 148.0880064377606 125.73755913476452 174.0963760940464 H 0.0 **** 0.06
37450 H 149.69483746963857 125.78061708328141 174.86109927306944 H 0.0 **** 0.06
37451 C 152.05699930553288 155.19164059544795 86.26424616276535 C 0.0 **** -0.24
37452 H 151.25053345342405 155.71522051737185 86.77670353287715 H 0.0 **** 0.06
37453 H 152.26665305065944 155.687383134249 85.31560958447722 H 0.0 **** 0.06
37454 H 151.7599315390134 154.16032049605923 86.07784808104032 H 0.0 **** 0.06
37455 H 152.95235182878537 155.20531741815478 86.88671504719571 H 0.0 **** 0.06
37456 C 16.601966691742305 191.31443547877853 115.54916959236917 C 0.0 **** -0.24
37457 H 16.97812905993119 190.52429311546743 114.89916758804532 H 0.0 **** 0.06
37458 H 15.558811804993255 191.11657162424004 115.79509123255932 H 0.0 **** 0.06
37459 H 16.679435711722192 192.2731869982432 115.03608698213017 H 0.0 **** 0.06
37460 H 17.19245100214249 191.3428100537377 116.46451533492248 H 0.0 **** 0.06
37461 C 153.43789437240488 174.2139240285789 90.74679455256856 C 0.0 **** -0.24
37462 H 153.83181318917062 173.19761142695637 90.73643379025813 H 0.0 **** 0.06
37463 H 152.7256423157485 174.33508112497879 89.93088669064156 H 0.0 **** 0.06
37464 H 154.25656786092952 174.9226769345387 90.62498443590991 H 0.0 **** 0.06
37465 H 152.93580295490003 174.39824033536826 91.69723572279023 H 0.0 **** 0.06
37466 C 37.39320243833586 101.83559376291464 120.37740053450253 C 0.0 **** -0.24
37467 H 36.60406740959263 101.47161609427144 121.03585315997299 H 0.0 **** 0.06
37468 H 36.95110408415317 102.20419147415154 119.45179940347285 H 0.0 **** 0.06
37469 H 38.08306410672202 101.02281761777749 120.15373233160261 H 0.0 **** 0.06
37470 H 37.93224278684593 102.64467365515935 120.87014378421233 H 0.0 **** 0.06
37471 C 102.38916056512943 88.35890942056594 26.40595654735901 C 0.0 **** -0.24
37472 H 103.28788796020532 87.74294859725029 26.381687075040986 H 0.0 **** 0.06
37473 H 102.13900768809853 88.59584862698955 27.439561409133887 H 0.0 **** 0.06
37474 H 101.56357352894341 87.81580143070991 25.946784004425155 H 0.0 **** 0.06
37475 H 102.5676321393158 89.28193007497146 25.854039471880128 H 0.0 **** 0.06
37476 C 77.98997951472268 18.06712297463889 10.308323496331454 C 0.0 **** -0.24
37477 H 79.03369694605468 17.97921092791887 10.007743950752186 H 0.0 **** 0.06
37478 H 77.36693052805389 17.475543678549798 9.635774144717885 H 0.0 **** 0.06
37479 H 77.68503368326982 19.112709962560302 10.260893744426433 H 0.0 **** 0.06
37480 H 77.87322821324152 17.701148287848838 11.32749389675724 H 0.0 **** 0.06
37481 C 151.98952356259636 0.5004843152091212 42.235648648374635 C 0.0 **** -0.24
37482 H 151.48393560150683 -0.4592075785262466 42.341189909412165 H 0.0 **** 0.06
37483 H 152.15703198801373 0.7079776754964655 41.178577636551566 H 0.0 **** 0.06
37484 H 152.94592376836883 0.4651933256342602 42.756529495268865 H 0.0 **** 0.06
37485 H 151.36857815027085 1.2862153550819926 42.66643423229743 H 0.0 **** 0.06
37486 C 155.14974367928568 1.6711423516500759 37.9590381666582 C 0.0 **** -0.24
37487 H 156.00307236472577 1.610686500725187 37.28388935545574 H 0.0 **** 0.06
37488 H 155.20821511186972 2.5946739543872397 38.53628870489817 H 0.0 **** 0.06
37489 H 155.16107171763298 0.817906776464838 38.6361706349965 H 0.0 **** 0.06
37490 H 154.22676069737167 1.66208824424384 37.37863732532463 H 0.0 **** 0.06
37491 C 180.722048171563 187.66732112867436 177.20142840154017 C 0.0 **** -0.24
37492 H 180.91223605375936 186.60119651292436 177.07761177924522 H 0.0 **** 0.06
37493 H 181.34684658005003 188.0567849477889 178.00538895485784 H 0.0 **** 0.06
37494 H 179.6712670282888 187.82177230500747 177.44992898704214 H 0.0 **** 0.06
37495 H 180.95576854681258 188.188333004607 176.27329582435357 H 0.0 **** 0.06
37496 C 66.56478909075145 74.19001902009018 105.73186202765254 C 0.0 **** -0.24
37497 H 67.17706917761876 74.47104811924288 104.87503157693891 H 0.0 **** 0.06
37498 H 65.88969306659271 75.00906884255193 105.97944721372016 H 0.0 **** 0.06
37499 H 67.21013966206073 73.98044152422477 106.58521459644402 H 0.0 **** 0.06
37500 H 65.98419068839627 73.30100897228095 105.48791882253317 H 0.0 **** 0.06
@<TRIPOS>BOND
1 1 2 28
2 1 3 28
3 1 4 28
4 1 5 28
5 6 7 28
6 6 8 28
7 6 9 28
8 6 10 28
9 11 12 28
10 11 13 28
11 11 14 28
12 11 15 28
13 16 17 28
14 16 18 28
15 16 19 28
16 16 20 28
17 21 22 28
18 21 23 28
19 21 24 28
20 21 25 28
21 26 27 28
22 26 28 28
23 26 29 28
24 26 30 28
25 31 32 28
26 31 33 28
27 31 34 28
28 31 35 28
29 36 37 28
30 36 38 28
31 36 39 28
32 36 40 28
33 41 42 28
34 41 43 28
35 41 44 28
36 41 45 28
37 46 47 28
38 46 48 28
39 46 49 28
40 46 50 28
41 51 52 28
42 51 53 28
43 51 54 28
44 51 55 28
45 56 57 28
46 56 58 28
47 56 59 28
48 56 60 28
49 61 62 28
50 61 63 28
51 61 64 28
52 61 65 28
53 66 67 28
54 66 68 28
55 66 69 28
56 66 70 28
57 71 72 28
58 71 73 28
59 71 74 28
60 71 75 28
61 76 77 28
62 76 78 28
63 76 79 28
64 76 80 28
65 81 82 28
66 81 83 28
67 81 84 28
68 81 85 28
69 86 87 28
70 86 88 28
71 86 89 28
72 86 90 28
73 91 92 28
74 91 93 28
75 91 94 28
76 91 95 28
77 96 97 28
78 96 98 28
79 96 99 28
80 96 100 28
81 101 102 28
82 101 103 28
83 101 104 28
84 101 105 28
85 106 107 28
86 106 108 28
87 106 109 28
88 106 110 28
89 111 112 28
90 111 113 28
91 111 114 28
92 111 115 28
93 116 117 28
94 116 118 28
95 116 119 28
96 116 120 28
97 121 122 28
98 121 123 28
99 121 124 28
100 121 125 28
101 126 127 28
102 126 128 28
103 126 129 28
104 126 130 28
105 131 132 28
106 131 133 28
107 131 134 28
108 131 135 28
109 136 137 28
110 136 138 28
111 136 139 28
112 136 140 28
113 141 142 28
114 141 143 28
115 141 144 28
116 141 145 28
117 146 147 28
118 146 148 28
119 146 149 28
120 146 150 28
121 151 152 28
122 151 153 28
123 151 154 28
124 151 155 28
125 156 157 28
126 156 158 28
127 156 159 28
128 156 160 28
129 161 162 28
130 161 163 28
131 161 164 28
132 161 165 28
133 166 167 28
134 166 168 28
135 166 169 28
136 166 170 28
137 171 172 28
138 171 173 28
139 171 174 28
140 171 175 28
141 176 177 28
142 176 178 28
143 176 179 28
144 176 180 28
145 181 182 28
146 181 183 28
147 181 184 28
148 181 185 28
149 186 187 28
150 186 188 28
151 186 189 28
152 186 190 28
153 191 192 28
154 191 193 28
155 191 194 28
156 191 195 28
157 196 197 28
158 196 198 28
159 196 199 28
160 196 200 28
161 201 202 28
162 201 203 28
163 201 204 28
164 201 205 28
165 206 207 28
166 206 208 28
167 206 209 28
168 206 210 28
169 211 212 28
170 211 213 28
171 211 214 28
172 211 215 28
173 216 217 28
174 216 218 28
175 216 219 28
176 216 220 28
177 221 222 28
178 221 223 28
179 221 224 28
180 221 225 28
181 226 227 28
182 226 228 28
183 226 229 28
184 226 230 28
185 231 232 28
186 231 233 28
187 231 234 28
188 231 235 28
189 236 237 28
190 236 238 28
191 236 239 28
192 236 240 28
193 241 242 28
194 241 243 28
195 241 244 28
196 241 245 28
197 246 247 28
198 246 248 28
199 246 249 28
200 246 250 28
201 251 252 28
202 251 253 28
203 251 254 28
204 251 255 28
205 256 257 28
206 256 258 28
207 256 259 28
208 256 260 28
209 261 262 28
210 261 263 28
211 261 264 28
212 261 265 28
213 266 267 28
214 266 268 28
215 266 269 28
216 266 270 28
217 271 272 28
218 271 273 28
219 271 274 28
220 271 275 28
221 276 277 28
222 276 278 28
223 276 279 28
224 276 280 28
225 281 282 28
226 281 283 28
227 281 284 28
228 281 285 28
229 286 287 28
230 286 288 28
231 286 289 28
232 286 290 28
233 291 292 28
234 291 293 28
235 291 294 28
236 291 295 28
237 296 297 28
238 296 298 28
239 296 299 28
240 296 300 28
241 301 302 28
242 301 303 28
243 301 304 28
244 301 305 28
245 306 307 28
246 306 308 28
247 306 309 28
248 306 310 28
249 311 312 28
250 311 313 28
251 311 314 28
252 311 315 28
253 316 317 28
254 316 318 28
255 316 319 28
256 316 320 28
257 321 322 28
258 321 323 28
259 321 324 28
260 321 325 28
261 326 327 28
262 326 328 28
263 326 329 28
264 326 330 28
265 331 332 28
266 331 333 28
267 331 334 28
268 331 335 28
269 336 337 28
270 336 338 28
271 336 339 28
272 336 340 28
273 341 342 28
274 341 343 28
275 341 344 28
276 341 345 28
277 346 347 28
278 346 348 28
279 346 349 28
280 346 350 28
281 351 352 28
282 351 353 28
283 351 354 28
284 351 355 28
285 356 357 28
286 356 358 28
287 356 359 28
288 356 360 28
289 361 362 28
290 361 363 28
291 361 364 28
292 361 365 28
293 366 367 28
294 366 368 28
295 366 369 28
296 366 370 28
297 371 372 28
298 371 373 28
299 371 374 28
300 371 375 28
301 376 377 28
302 376 378 28
303 376 379 28
304 376 380 28
305 381 382 28
306 381 383 28
307 381 384 28
308 381 385 28
309 386 387 28
310 386 388 28
311 386 389 28
312 386 390 28
313 391 392 28
314 391 393 28
315 391 394 28
316 391 395 28
317 396 397 28
318 396 398 28
319 396 399 28
320 396 400 28
321 401 402 28
322 401 403 28
323 401 404 28
324 401 405 28
325 406 407 28
326 406 408 28
327 406 409 28
328 406 410 28
329 411 412 28
330 411 413 28
331 411 414 28
332 411 415 28
333 416 417 28
334 416 418 28
335 416 419 28
336 416 420 28
337 421 422 28
338 421 423 28
339 421 424 28
340 421 425 28
341 426 427 28
342 426 428 28
343 426 429 28
344 426 430 28
345 431 432 28
346 431 433 28
347 431 434 28
348 431 435 28
349 436 437 28
350 436 438 28
351 436 439 28
352 436 440 28
353 441 442 28
354 441 443 28
355 441 444 28
356 441 445 28
357 446 447 28
358 446 448 28
359 446 449 28
360 446 450 28
361 451 452 28
362 451 453 28
363 451 454 28
364 451 455 28
365 456 457 28
366 456 458 28
367 456 459 28
368 456 460 28
369 461 462 28
370 461 463 28
371 461 464 28
372 461 465 28
373 466 467 28
374 466 468 28
375 466 469 28
376 466 470 28
377 471 472 28
378 471 473 28
379 471 474 28
380 471 475 28
381 476 477 28
382 476 478 28
383 476 479 28
384 476 480 28
385 481 482 28
386 481 483 28
387 481 484 28
388 481 485 28
389 486 487 28
390 486 488 28
391 486 489 28
392 486 490 28
393 491 492 28
394 491 493 28
395 491 494 28
396 491 495 28
397 496 497 28
398 496 498 28
399 496 499 28
400 496 500 28
401 501 502 28
402 501 503 28
403 501 504 28
404 501 505 28
405 506 507 28
406 506 508 28
407 506 509 28
408 506 510 28
409 511 512 28
410 511 513 28
411 511 514 28
412 511 515 28
413 516 517 28
414 516 518 28
415 516 519 28
416 516 520 28
417 521 522 28
418 521 523 28
419 521 524 28
420 521 525 28
421 526 527 28
422 526 528 28
423 526 529 28
424 526 530 28
425 531 532 28
426 531 533 28
427 531 534 28
428 531 535 28
429 536 537 28
430 536 538 28
431 536 539 28
432 536 540 28
433 541 542 28
434 541 543 28
435 541 544 28
436 541 545 28
437 546 547 28
438 546 548 28
439 546 549 28
440 546 550 28
441 551 552 28
442 551 553 28
443 551 554 28
444 551 555 28
445 556 557 28
446 556 558 28
447 556 559 28
448 556 560 28
449 561 562 28
450 561 563 28
451 561 564 28
452 561 565 28
453 566 567 28
454 566 568 28
455 566 569 28
456 566 570 28
457 571 572 28
458 571 573 28
459 571 574 28
460 571 575 28
461 576 577 28
462 576 578 28
463 576 579 28
464 576 580 28
465 581 582 28
466 581 583 28
467 581 584 28
468 581 585 28
469 586 587 28
470 586 588 28
471 586 589 28
472 586 590 28
473 591 592 28
474 591 593 28
475 591 594 28
476 591 595 28
477 596 597 28
478 596 598 28
479 596 599 28
480 596 600 28
481 601 602 28
482 601 603 28
483 601 604 28
484 601 605 28
485 606 607 28
486 606 608 28
487 606 609 28
488 606 610 28
489 611 612 28
490 611 613 28
491 611 614 28
492 611 615 28
493 616 617 28
494 616 618 28
495 616 619 28
496 616 620 28
497 621 622 28
498 621 623 28
499 621 624 28
500 621 625 28
501 626 627 28
502 626 628 28
503 626 629 28
504 626 630 28
505 631 632 28
506 631 633 28
507 631 634 28
508 631 635 28
509 636 637 28
510 636 638 28
511 636 639 28
512 636 640 28
513 641 642 28
514 641 643 28
515 641 644 28
516 641 645 28
517 646 647 28
518 646 648 28
519 646 649 28
520 646 650 28
521 651 652 28
522 651 653 28
523 651 654 28
524 651 655 28
525 656 657 28
526 656 658 28
527 656 659 28
528 656 660 28
529 661 662 28
530 661 663 28
531 661 664 28
532 661 665 28
533 666 667 28
534 666 668 28
535 666 669 28
536 666 670 28
537 671 672 28
538 671 673 28
539 671 674 28
540 671 675 28
541 676 677 28
542 676 678 28
543 676 679 28
544 676 680 28
545 681 682 28
546 681 683 28
547 681 684 28
548 681 685 28
549 686 687 28
550 686 688 28
551 686 689 28
552 686 690 28
553 691 692 28
554 691 693 28
555 691 694 28
556 691 695 28
557 696 697 28
558 696 698 28
559 696 699 28
560 696 700 28
561 701 702 28
562 701 703 28
563 701 704 28
564 701 705 28
565 706 707 28
566 706 708 28
567 706 709 28
568 706 710 28
569 711 712 28
570 711 713 28
571 711 714 28
572 711 715 28
573 716 717 28
574 716 718 28
575 716 719 28
576 716 720 28
577 721 722 28
578 721 723 28
579 721 724 28
580 721 725 28
581 726 727 28
582 726 728 28
583 726 729 28
584 726 730 28
585 731 732 28
586 731 733 28
587 731 734 28
588 731 735 28
589 736 737 28
590 736 738 28
591 736 739 28
592 736 740 28
593 741 742 28
594 741 743 28
595 741 744 28
596 741 745 28
597 746 747 28
598 746 748 28
599 746 749 28
600 746 750 28
601 751 752 28
602 751 753 28
603 751 754 28
604 751 755 28
605 756 757 28
606 756 758 28
607 756 759 28
608 756 760 28
609 761 762 28
610 761 763 28
611 761 764 28
612 761 765 28
613 766 767 28
614 766 768 28
615 766 769 28
616 766 770 28
617 771 772 28
618 771 773 28
619 771 774 28
620 771 775 28
621 776 777 28
622 776 778 28
623 776 779 28
624 776 780 28
625 781 782 28
626 781 783 28
627 781 784 28
628 781 785 28
629 786 787 28
630 786 788 28
631 786 789 28
632 786 790 28
633 791 792 28
634 791 793 28
635 791 794 28
636 791 795 28
637 796 797 28
638 796 798 28
639 796 799 28
640 796 800 28
641 801 802 28
642 801 803 28
643 801 804 28
644 801 805 28
645 806 807 28
646 806 808 28
647 806 809 28
648 806 810 28
649 811 812 28
650 811 813 28
651 811 814 28
652 811 815 28
653 816 817 28
654 816 818 28
655 816 819 28
656 816 820 28
657 821 822 28
658 821 823 28
659 821 824 28
660 821 825 28
661 826 827 28
662 826 828 28
663 826 829 28
664 826 830 28
665 831 832 28
666 831 833 28
667 831 834 28
668 831 835 28
669 836 837 28
670 836 838 28
671 836 839 28
672 836 840 28
673 841 842 28
674 841 843 28
675 841 844 28
676 841 845 28
677 846 847 28
678 846 848 28
679 846 849 28
680 846 850 28
681 851 852 28
682 851 853 28
683 851 854 28
684 851 855 28
685 856 857 28
686 856 858 28
687 856 859 28
688 856 860 28
689 861 862 28
690 861 863 28
691 861 864 28
692 861 865 28
693 866 867 28
694 866 868 28
695 866 869 28
696 866 870 28
697 871 872 28
698 871 873 28
699 871 874 28
700 871 875 28
701 876 877 28
702 876 878 28
703 876 879 28
704 876 880 28
705 881 882 28
706 881 883 28
707 881 884 28
708 881 885 28
709 886 887 28
710 886 888 28
711 886 889 28
712 886 890 28
713 891 892 28
714 891 893 28
715 891 894 28
716 891 895 28
717 896 897 28
718 896 898 28
719 896 899 28
720 896 900 28
721 901 902 28
722 901 903 28
723 901 904 28
724 901 905 28
725 906 907 28
726 906 908 28
727 906 909 28
728 906 910 28
729 911 912 28
730 911 913 28
731 911 914 28
732 911 915 28
733 916 917 28
734 916 918 28
735 916 919 28
736 916 920 28
737 921 922 28
738 921 923 28
739 921 924 28
740 921 925 28
741 926 927 28
742 926 928 28
743 926 929 28
744 926 930 28
745 931 932 28
746 931 933 28
747 931 934 28
748 931 935 28
749 936 937 28
750 936 938 28
751 936 939 28
752 936 940 28
753 941 942 28
754 941 943 28
755 941 944 28
756 941 945 28
757 946 947 28
758 946 948 28
759 946 949 28
760 946 950 28
761 951 952 28
762 951 953 28
763 951 954 28
764 951 955 28
765 956 957 28
766 956 958 28
767 956 959 28
768 956 960 28
769 961 962 28
770 961 963 28
771 961 964 28
772 961 965 28
773 966 967 28
774 966 968 28
775 966 969 28
776 966 970 28
777 971 972 28
778 971 973 28
779 971 974 28
780 971 975 28
781 976 977 28
782 976 978 28
783 976 979 28
784 976 980 28
785 981 982 28
786 981 983 28
787 981 984 28
788 981 985 28
789 986 987 28
790 986 988 28
791 986 989 28
792 986 990 28
793 991 992 28
794 991 993 28
795 991 994 28
796 991 995 28
797 996 997 28
798 996 998 28
799 996 999 28
800 996 1000 28
801 1001 1002 28
802 1001 1003 28
803 1001 1004 28
804 1001 1005 28
805 1006 1007 28
806 1006 1008 28
807 1006 1009 28
808 1006 1010 28
809 1011 1012 28
810 1011 1013 28
811 1011 1014 28
812 1011 1015 28
813 1016 1017 28
814 1016 1018 28
815 1016 1019 28
816 1016 1020 28
817 1021 1022 28
818 1021 1023 28
819 1021 1024 28
820 1021 1025 28
821 1026 1027 28
822 1026 1028 28
823 1026 1029 28
824 1026 1030 28
825 1031 1032 28
826 1031 1033 28
827 1031 1034 28
828 1031 1035 28
829 1036 1037 28
830 1036 1038 28
831 1036 1039 28
832 1036 1040 28
833 1041 1042 28
834 1041 1043 28
835 1041 1044 28
836 1041 1045 28
837 1046 1047 28
838 1046 1048 28
839 1046 1049 28
840 1046 1050 28
841 1051 1052 28
842 1051 1053 28
843 1051 1054 28
844 1051 1055 28
845 1056 1057 28
846 1056 1058 28
847 1056 1059 28
848 1056 1060 28
849 1061 1062 28
850 1061 1063 28
851 1061 1064 28
852 1061 1065 28
853 1066 1067 28
854 1066 1068 28
855 1066 1069 28
856 1066 1070 28
857 1071 1072 28
858 1071 1073 28
859 1071 1074 28
860 1071 1075 28
861 1076 1077 28
862 1076 1078 28
863 1076 1079 28
864 1076 1080 28
865 1081 1082 28
866 1081 1083 28
867 1081 1084 28
868 1081 1085 28
869 1086 1087 28
870 1086 1088 28
871 1086 1089 28
872 1086 1090 28
873 1091 1092 28
874 1091 1093 28
875 1091 1094 28
876 1091 1095 28
877 1096 1097 28
878 1096 1098 28
879 1096 1099 28
880 1096 1100 28
881 1101 1102 28
882 1101 1103 28
883 1101 1104 28
884 1101 1105 28
885 1106 1107 28
886 1106 1108 28
887 1106 1109 28
888 1106 1110 28
889 1111 1112 28
890 1111 1113 28
891 1111 1114 28
892 1111 1115 28
893 1116 1117 28
894 1116 1118 28
895 1116 1119 28
896 1116 1120 28
897 1121 1122 28
898 1121 1123 28
899 1121 1124 28
900 1121 1125 28
901 1126 1127 28
902 1126 1128 28
903 1126 1129 28
904 1126 1130 28
905 1131 1132 28
906 1131 1133 28
907 1131 1134 28
908 1131 1135 28
909 1136 1137 28
910 1136 1138 28
911 1136 1139 28
912 1136 1140 28
913 1141 1142 28
914 1141 1143 28
915 1141 1144 28
916 1141 1145 28
917 1146 1147 28
918 1146 1148 28
919 1146 1149 28
920 1146 1150 28
921 1151 1152 28
922 1151 1153 28
923 1151 1154 28
924 1151 1155 28
925 1156 1157 28
926 1156 1158 28
927 1156 1159 28
928 1156 1160 28
929 1161 1162 28
930 1161 1163 28
931 1161 1164 28
932 1161 1165 28
933 1166 1167 28
934 1166 1168 28
935 1166 1169 28
936 1166 1170 28
937 1171 1172 28
938 1171 1173 28
939 1171 1174 28
940 1171 1175 28
941 1176 1177 28
942 1176 1178 28
943 1176 1179 28
944 1176 1180 28
945 1181 1182 28
946 1181 1183 28
947 1181 1184 28
948 1181 1185 28
949 1186 1187 28
950 1186 1188 28
951 1186 1189 28
952 1186 1190 28
953 1191 1192 28
954 1191 1193 28
955 1191 1194 28
956 1191 1195 28
957 1196 1197 28
958 1196 1198 28
959 1196 1199 28
960 1196 1200 28
961 1201 1202 28
962 1201 1203 28
963 1201 1204 28
964 1201 1205 28
965 1206 1207 28
966 1206 1208 28
967 1206 1209 28
968 1206 1210 28
969 1211 1212 28
970 1211 1213 28
971 1211 1214 28
972 1211 1215 28
973 1216 1217 28
974 1216 1218 28
975 1216 1219 28
976 1216 1220 28
977 1221 1222 28
978 1221 1223 28
979 1221 1224 28
980 1221 1225 28
981 1226 1227 28
982 1226 1228 28
983 1226 1229 28
984 1226 1230 28
985 1231 1232 28
986 1231 1233 28
987 1231 1234 28
988 1231 1235 28
989 1236 1237 28
990 1236 1238 28
991 1236 1239 28
992 1236 1240 28
993 1241 1242 28
994 1241 1243 28
995 1241 1244 28
996 1241 1245 28
997 1246 1247 28
998 1246 1248 28
999 1246 1249 28
1000 1246 1250 28
1001 1251 1252 28
1002 1251 1253 28
1003 1251 1254 28
1004 1251 1255 28
1005 1256 1257 28
1006 1256 1258 28
1007 1256 1259 28
1008 1256 1260 28
1009 1261 1262 28
1010 1261 1263 28
1011 1261 1264 28
1012 1261 1265 28
1013 1266 1267 28
1014 1266 1268 28
1015 1266 1269 28
1016 1266 1270 28
1017 1271 1272 28
1018 1271 1273 28
1019 1271 1274 28
1020 1271 1275 28
1021 1276 1277 28
1022 1276 1278 28
1023 1276 1279 28
1024 1276 1280 28
1025 1281 1282 28
1026 1281 1283 28
1027 1281 1284 28
1028 1281 1285 28
1029 1286 1287 28
1030 1286 1288 28
1031 1286 1289 28
1032 1286 1290 28
1033 1291 1292 28
1034 1291 1293 28
1035 1291 1294 28
1036 1291 1295 28
1037 1296 1297 28
1038 1296 1298 28
1039 1296 1299 28
1040 1296 1300 28
1041 1301 1302 28
1042 1301 1303 28
1043 1301 1304 28
1044 1301 1305 28
1045 1306 1307 28
1046 1306 1308 28
1047 1306 1309 28
1048 1306 1310 28
1049 1311 1312 28
1050 1311 1313 28
1051 1311 1314 28
1052 1311 1315 28
1053 1316 1317 28
1054 1316 1318 28
1055 1316 1319 28
1056 1316 1320 28
1057 1321 1322 28
1058 1321 1323 28
1059 1321 1324 28
1060 1321 1325 28
1061 1326 1327 28
1062 1326 1328 28
1063 1326 1329 28
1064 1326 1330 28
1065 1331 1332 28
1066 1331 1333 28
1067 1331 1334 28
1068 1331 1335 28
1069 1336 1337 28
1070 1336 1338 28
1071 1336 1339 28
1072 1336 1340 28
1073 1341 1342 28
1074 1341 1343 28
1075 1341 1344 28
1076 1341 1345 28
1077 1346 1347 28
1078 1346 1348 28
1079 1346 1349 28
1080 1346 1350 28
1081 1351 1352 28
1082 1351 1353 28
1083 1351 1354 28
1084 1351 1355 28
1085 1356 1357 28
1086 1356 1358 28
1087 1356 1359 28
1088 1356 1360 28
1089 1361 1362 28
1090 1361 1363 28
1091 1361 1364 28
1092 1361 1365 28
1093 1366 1367 28
1094 1366 1368 28
1095 1366 1369 28
1096 1366 1370 28
1097 1371 1372 28
1098 1371 1373 28
1099 1371 1374 28
1100 1371 1375 28
1101 1376 1377 28
1102 1376 1378 28
1103 1376 1379 28
1104 1376 1380 28
1105 1381 1382 28
1106 1381 1383 28
1107 1381 1384 28
1108 1381 1385 28
1109 1386 1387 28
1110 1386 1388 28
1111 1386 1389 28
1112 1386 1390 28
1113 1391 1392 28
1114 1391 1393 28
1115 1391 1394 28
1116 1391 1395 28
1117 1396 1397 28
1118 1396 1398 28
1119 1396 1399 28
1120 1396 1400 28
1121 1401 1402 28
1122 1401 1403 28
1123 1401 1404 28
1124 1401 1405 28
1125 1406 1407 28
1126 1406 1408 28
1127 1406 1409 28
1128 1406 1410 28
1129 1411 1412 28
1130 1411 1413 28
1131 1411 1414 28
1132 1411 1415 28
1133 1416 1417 28
1134 1416 1418 28
1135 1416 1419 28
1136 1416 1420 28
1137 1421 1422 28
1138 1421 1423 28
1139 1421 1424 28
1140 1421 1425 28
1141 1426 1427 28
1142 1426 1428 28
1143 1426 1429 28
1144 1426 1430 28
1145 1431 1432 28
1146 1431 1433 28
1147 1431 1434 28
1148 1431 1435 28
1149 1436 1437 28
1150 1436 1438 28
1151 1436 1439 28
1152 1436 1440 28
1153 1441 1442 28
1154 1441 1443 28
1155 1441 1444 28
1156 1441 1445 28
1157 1446 1447 28
1158 1446 1448 28
1159 1446 1449 28
1160 1446 1450 28
1161 1451 1452 28
1162 1451 1453 28
1163 1451 1454 28
1164 1451 1455 28
1165 1456 1457 28
1166 1456 1458 28
1167 1456 1459 28
1168 1456 1460 28
1169 1461 1462 28
1170 1461 1463 28
1171 1461 1464 28
1172 1461 1465 28
1173 1466 1467 28
1174 1466 1468 28
1175 1466 1469 28
1176 1466 1470 28
1177 1471 1472 28
1178 1471 1473 28
1179 1471 1474 28
1180 1471 1475 28
1181 1476 1477 28
1182 1476 1478 28
1183 1476 1479 28
1184 1476 1480 28
1185 1481 1482 28
1186 1481 1483 28
1187 1481 1484 28
1188 1481 1485 28
1189 1486 1487 28
1190 1486 1488 28
1191 1486 1489 28
1192 1486 1490 28
1193 1491 1492 28
1194 1491 1493 28
1195 1491 1494 28
1196 1491 1495 28
1197 1496 1497 28
1198 1496 1498 28
1199 1496 1499 28
1200 1496 1500 28
1201 1501 1502 28
1202 1501 1503 28
1203 1501 1504 28
1204 1501 1505 28
1205 1506 1507 28
1206 1506 1508 28
1207 1506 1509 28
1208 1506 1510 28
1209 1511 1512 28
1210 1511 1513 28
1211 1511 1514 28
1212 1511 1515 28
1213 1516 1517 28
1214 1516 1518 28
1215 1516 1519 28
1216 1516 1520 28
1217 1521 1522 28
1218 1521 1523 28
1219 1521 1524 28
1220 1521 1525 28
1221 1526 1527 28
1222 1526 1528 28
1223 1526 1529 28
1224 1526 1530 28
1225 1531 1532 28
1226 1531 1533 28
1227 1531 1534 28
1228 1531 1535 28
1229 1536 1537 28
1230 1536 1538 28
1231 1536 1539 28
1232 1536 1540 28
1233 1541 1542 28
1234 1541 1543 28
1235 1541 1544 28
1236 1541 1545 28
1237 1546 1547 28
1238 1546 1548 28
1239 1546 1549 28
1240 1546 1550 28
1241 1551 1552 28
1242 1551 1553 28
1243 1551 1554 28
1244 1551 1555 28
1245 1556 1557 28
1246 1556 1558 28
1247 1556 1559 28
1248 1556 1560 28
1249 1561 1562 28
1250 1561 1563 28
1251 1561 1564 28
1252 1561 1565 28
1253 1566 1567 28
1254 1566 1568 28
1255 1566 1569 28
1256 1566 1570 28
1257 1571 1572 28
1258 1571 1573 28
1259 1571 1574 28
1260 1571 1575 28
1261 1576 1577 28
1262 1576 1578 28
1263 1576 1579 28
1264 1576 1580 28
1265 1581 1582 28
1266 1581 1583 28
1267 1581 1584 28
1268 1581 1585 28
1269 1586 1587 28
1270 1586 1588 28
1271 1586 1589 28
1272 1586 1590 28
1273 1591 1592 28
1274 1591 1593 28
1275 1591 1594 28
1276 1591 1595 28
1277 1596 1597 28
1278 1596 1598 28
1279 1596 1599 28
1280 1596 1600 28
1281 1601 1602 28
1282 1601 1603 28
1283 1601 1604 28
1284 1601 1605 28
1285 1606 1607 28
1286 1606 1608 28
1287 1606 1609 28
1288 1606 1610 28
1289 1611 1612 28
1290 1611 1613 28
1291 1611 1614 28
1292 1611 1615 28
1293 1616 1617 28
1294 1616 1618 28
1295 1616 1619 28
1296 1616 1620 28
1297 1621 1622 28
1298 1621 1623 28
1299 1621 1624 28
1300 1621 1625 28
1301 1626 1627 28
1302 1626 1628 28
1303 1626 1629 28
1304 1626 1630 28
1305 1631 1632 28
1306 1631 1633 28
1307 1631 1634 28
1308 1631 1635 28
1309 1636 1637 28
1310 1636 1638 28
1311 1636 1639 28
1312 1636 1640 28
1313 1641 1642 28
1314 1641 1643 28
1315 1641 1644 28
1316 1641 1645 28
1317 1646 1647 28
1318 1646 1648 28
1319 1646 1649 28
1320 1646 1650 28
1321 1651 1652 28
1322 1651 1653 28
1323 1651 1654 28
1324 1651 1655 28
1325 1656 1657 28
1326 1656 1658 28
1327 1656 1659 28
1328 1656 1660 28
1329 1661 1662 28
1330 1661 1663 28
1331 1661 1664 28
1332 1661 1665 28
1333 1666 1667 28
1334 1666 1668 28
1335 1666 1669 28
1336 1666 1670 28
1337 1671 1672 28
1338 1671 1673 28
1339 1671 1674 28
1340 1671 1675 28
1341 1676 1677 28
1342 1676 1678 28
1343 1676 1679 28
1344 1676 1680 28
1345 1681 1682 28
1346 1681 1683 28
1347 1681 1684 28
1348 1681 1685 28
1349 1686 1687 28
1350 1686 1688 28
1351 1686 1689 28
1352 1686 1690 28
1353 1691 1692 28
1354 1691 1693 28
1355 1691 1694 28
1356 1691 1695 28
1357 1696 1697 28
1358 1696 1698 28
1359 1696 1699 28
1360 1696 1700 28
1361 1701 1702 28
1362 1701 1703 28
1363 1701 1704 28
1364 1701 1705 28
1365 1706 1707 28
1366 1706 1708 28
1367 1706 1709 28
1368 1706 1710 28
1369 1711 1712 28
1370 1711 1713 28
1371 1711 1714 28
1372 1711 1715 28
1373 1716 1717 28
1374 1716 1718 28
1375 1716 1719 28
1376 1716 1720 28
1377 1721 1722 28
1378 1721 1723 28
1379 1721 1724 28
1380 1721 1725 28
1381 1726 1727 28
1382 1726 1728 28
1383 1726 1729 28
1384 1726 1730 28
1385 1731 1732 28
1386 1731 1733 28
1387 1731 1734 28
1388 1731 1735 28
1389 1736 1737 28
1390 1736 1738 28
1391 1736 1739 28
1392 1736 1740 28
1393 1741 1742 28
1394 1741 1743 28
1395 1741 1744 28
1396 1741 1745 28
1397 1746 1747 28
1398 1746 1748 28
1399 1746 1749 28
1400 1746 1750 28
1401 1751 1752 28
1402 1751 1753 28
1403 1751 1754 28
1404 1751 1755 28
1405 1756 1757 28
1406 1756 1758 28
1407 1756 1759 28
1408 1756 1760 28
1409 1761 1762 28
1410 1761 1763 28
1411 1761 1764 28
1412 1761 1765 28
1413 1766 1767 28
1414 1766 1768 28
1415 1766 1769 28
1416 1766 1770 28
1417 1771 1772 28
1418 1771 1773 28
1419 1771 1774 28
1420 1771 1775 28
1421 1776 1777 28
1422 1776 1778 28
1423 1776 1779 28
1424 1776 1780 28
1425 1781 1782 28
1426 1781 1783 28
1427 1781 1784 28
1428 1781 1785 28
1429 1786 1787 28
1430 1786 1788 28
1431 1786 1789 28
1432 1786 1790 28
1433 1791 1792 28
1434 1791 1793 28
1435 1791 1794 28
1436 1791 1795 28
1437 1796 1797 28
1438 1796 1798 28
1439 1796 1799 28
1440 1796 1800 28
1441 1801 1802 28
1442 1801 1803 28
1443 1801 1804 28
1444 1801 1805 28
1445 1806 1807 28
1446 1806 1808 28
1447 1806 1809 28
1448 1806 1810 28
1449 1811 1812 28
1450 1811 1813 28
1451 1811 1814 28
1452 1811 1815 28
1453 1816 1817 28
1454 1816 1818 28
1455 1816 1819 28
1456 1816 1820 28
1457 1821 1822 28
1458 1821 1823 28
1459 1821 1824 28
1460 1821 1825 28
1461 1826 1827 28
1462 1826 1828 28
1463 1826 1829 28
1464 1826 1830 28
1465 1831 1832 28
1466 1831 1833 28
1467 1831 1834 28
1468 1831 1835 28
1469 1836 1837 28
1470 1836 1838 28
1471 1836 1839 28
1472 1836 1840 28
1473 1841 1842 28
1474 1841 1843 28
1475 1841 1844 28
1476 1841 1845 28
1477 1846 1847 28
1478 1846 1848 28
1479 1846 1849 28
1480 1846 1850 28
1481 1851 1852 28
1482 1851 1853 28
1483 1851 1854 28
1484 1851 1855 28
1485 1856 1857 28
1486 1856 1858 28
1487 1856 1859 28
1488 1856 1860 28
1489 1861 1862 28
1490 1861 1863 28
1491 1861 1864 28
1492 1861 1865 28
1493 1866 1867 28
1494 1866 1868 28
1495 1866 1869 28
1496 1866 1870 28
1497 1871 1872 28
1498 1871 1873 28
1499 1871 1874 28
1500 1871 1875 28
1501 1876 1877 28
1502 1876 1878 28
1503 1876 1879 28
1504 1876 1880 28
1505 1881 1882 28
1506 1881 1883 28
1507 1881 1884 28
1508 1881 1885 28
1509 1886 1887 28
1510 1886 1888 28
1511 1886 1889 28
1512 1886 1890 28
1513 1891 1892 28
1514 1891 1893 28
1515 1891 1894 28
1516 1891 1895 28
1517 1896 1897 28
1518 1896 1898 28
1519 1896 1899 28
1520 1896 1900 28
1521 1901 1902 28
1522 1901 1903 28
1523 1901 1904 28
1524 1901 1905 28
1525 1906 1907 28
1526 1906 1908 28
1527 1906 1909 28
1528 1906 1910 28
1529 1911 1912 28
1530 1911 1913 28
1531 1911 1914 28
1532 1911 1915 28
1533 1916 1917 28
1534 1916 1918 28
1535 1916 1919 28
1536 1916 1920 28
1537 1921 1922 28
1538 1921 1923 28
1539 1921 1924 28
1540 1921 1925 28
1541 1926 1927 28
1542 1926 1928 28
1543 1926 1929 28
1544 1926 1930 28
1545 1931 1932 28
1546 1931 1933 28
1547 1931 1934 28
1548 1931 1935 28
1549 1936 1937 28
1550 1936 1938 28
1551 1936 1939 28
1552 1936 1940 28
1553 1941 1942 28
1554 1941 1943 28
1555 1941 1944 28
1556 1941 1945 28
1557 1946 1947 28
1558 1946 1948 28
1559 1946 1949 28
1560 1946 1950 28
1561 1951 1952 28
1562 1951 1953 28
1563 1951 1954 28
1564 1951 1955 28
1565 1956 1957 28
1566 1956 1958 28
1567 1956 1959 28
1568 1956 1960 28
1569 1961 1962 28
1570 1961 1963 28
1571 1961 1964 28
1572 1961 1965 28
1573 1966 1967 28
1574 1966 1968 28
1575 1966 1969 28
1576 1966 1970 28
1577 1971 1972 28
1578 1971 1973 28
1579 1971 1974 28
1580 1971 1975 28
1581 1976 1977 28
1582 1976 1978 28
1583 1976 1979 28
1584 1976 1980 28
1585 1981 1982 28
1586 1981 1983 28
1587 1981 1984 28
1588 1981 1985 28
1589 1986 1987 28
1590 1986 1988 28
1591 1986 1989 28
1592 1986 1990 28
1593 1991 1992 28
1594 1991 1993 28
1595 1991 1994 28
1596 1991 1995 28
1597 1996 1997 28
1598 1996 1998 28
1599 1996 1999 28
1600 1996 2000 28
1601 2001 2002 28
1602 2001 2003 28
1603 2001 2004 28
1604 2001 2005 28
1605 2006 2007 28
1606 2006 2008 28
1607 2006 2009 28
1608 2006 2010 28
1609 2011 2012 28
1610 2011 2013 28
1611 2011 2014 28
1612 2011 2015 28
1613 2016 2017 28
1614 2016 2018 28
1615 2016 2019 28
1616 2016 2020 28
1617 2021 2022 28
1618 2021 2023 28
1619 2021 2024 28
1620 2021 2025 28
1621 2026 2027 28
1622 2026 2028 28
1623 2026 2029 28
1624 2026 2030 28
1625 2031 2032 28
1626 2031 2033 28
1627 2031 2034 28
1628 2031 2035 28
1629 2036 2037 28
1630 2036 2038 28
1631 2036 2039 28
1632 2036 2040 28
1633 2041 2042 28
1634 2041 2043 28
1635 2041 2044 28
1636 2041 2045 28
1637 2046 2047 28
1638 2046 2048 28
1639 2046 2049 28
1640 2046 2050 28
1641 2051 2052 28
1642 2051 2053 28
1643 2051 2054 28
1644 2051 2055 28
1645 2056 2057 28
1646 2056 2058 28
1647 2056 2059 28
1648 2056 2060 28
1649 2061 2062 28
1650 2061 2063 28
1651 2061 2064 28
1652 2061 2065 28
1653 2066 2067 28
1654 2066 2068 28
1655 2066 2069 28
1656 2066 2070 28
1657 2071 2072 28
1658 2071 2073 28
1659 2071 2074 28
1660 2071 2075 28
1661 2076 2077 28
1662 2076 2078 28
1663 2076 2079 28
1664 2076 2080 28
1665 2081 2082 28
1666 2081 2083 28
1667 2081 2084 28
1668 2081 2085 28
1669 2086 2087 28
1670 2086 2088 28
1671 2086 2089 28
1672 2086 2090 28
1673 2091 2092 28
1674 2091 2093 28
1675 2091 2094 28
1676 2091 2095 28
1677 2096 2097 28
1678 2096 2098 28
1679 2096 2099 28
1680 2096 2100 28
1681 2101 2102 28
1682 2101 2103 28
1683 2101 2104 28
1684 2101 2105 28
1685 2106 2107 28
1686 2106 2108 28
1687 2106 2109 28
1688 2106 2110 28
1689 2111 2112 28
1690 2111 2113 28
1691 2111 2114 28
1692 2111 2115 28
1693 2116 2117 28
1694 2116 2118 28
1695 2116 2119 28
1696 2116 2120 28
1697 2121 2122 28
1698 2121 2123 28
1699 2121 2124 28
1700 2121 2125 28
1701 2126 2127 28
1702 2126 2128 28
1703 2126 2129 28
1704 2126 2130 28
1705 2131 2132 28
1706 2131 2133 28
1707 2131 2134 28
1708 2131 2135 28
1709 2136 2137 28
1710 2136 2138 28
1711 2136 2139 28
1712 2136 2140 28
1713 2141 2142 28
1714 2141 2143 28
1715 2141 2144 28
1716 2141 2145 28
1717 2146 2147 28
1718 2146 2148 28
1719 2146 2149 28
1720 2146 2150 28
1721 2151 2152 28
1722 2151 2153 28
1723 2151 2154 28
1724 2151 2155 28
1725 2156 2157 28
1726 2156 2158 28
1727 2156 2159 28
1728 2156 2160 28
1729 2161 2162 28
1730 2161 2163 28
1731 2161 2164 28
1732 2161 2165 28
1733 2166 2167 28
1734 2166 2168 28
1735 2166 2169 28
1736 2166 2170 28
1737 2171 2172 28
1738 2171 2173 28
1739 2171 2174 28
1740 2171 2175 28
1741 2176 2177 28
1742 2176 2178 28
1743 2176 2179 28
1744 2176 2180 28
1745 2181 2182 28
1746 2181 2183 28
1747 2181 2184 28
1748 2181 2185 28
1749 2186 2187 28
1750 2186 2188 28
1751 2186 2189 28
1752 2186 2190 28
1753 2191 2192 28
1754 2191 2193 28
1755 2191 2194 28
1756 2191 2195 28
1757 2196 2197 28
1758 2196 2198 28
1759 2196 2199 28
1760 2196 2200 28
1761 2201 2202 28
1762 2201 2203 28
1763 2201 2204 28
1764 2201 2205 28
1765 2206 2207 28
1766 2206 2208 28
1767 2206 2209 28
1768 2206 2210 28
1769 2211 2212 28
1770 2211 2213 28
1771 2211 2214 28
1772 2211 2215 28
1773 2216 2217 28
1774 2216 2218 28
1775 2216 2219 28
1776 2216 2220 28
1777 2221 2222 28
1778 2221 2223 28
1779 2221 2224 28
1780 2221 2225 28
1781 2226 2227 28
1782 2226 2228 28
1783 2226 2229 28
1784 2226 2230 28
1785 2231 2232 28
1786 2231 2233 28
1787 2231 2234 28
1788 2231 2235 28
1789 2236 2237 28
1790 2236 2238 28
1791 2236 2239 28
1792 2236 2240 28
1793 2241 2242 28
1794 2241 2243 28
1795 2241 2244 28
1796 2241 2245 28
1797 2246 2247 28
1798 2246 2248 28
1799 2246 2249 28
1800 2246 2250 28
1801 2251 2252 28
1802 2251 2253 28
1803 2251 2254 28
1804 2251 2255 28
1805 2256 2257 28
1806 2256 2258 28
1807 2256 2259 28
1808 2256 2260 28
1809 2261 2262 28
1810 2261 2263 28
1811 2261 2264 28
1812 2261 2265 28
1813 2266 2267 28
1814 2266 2268 28
1815 2266 2269 28
1816 2266 2270 28
1817 2271 2272 28
1818 2271 2273 28
1819 2271 2274 28
1820 2271 2275 28
1821 2276 2277 28
1822 2276 2278 28
1823 2276 2279 28
1824 2276 2280 28
1825 2281 2282 28
1826 2281 2283 28
1827 2281 2284 28
1828 2281 2285 28
1829 2286 2287 28
1830 2286 2288 28
1831 2286 2289 28
1832 2286 2290 28
1833 2291 2292 28
1834 2291 2293 28
1835 2291 2294 28
1836 2291 2295 28
1837 2296 2297 28
1838 2296 2298 28
1839 2296 2299 28
1840 2296 2300 28
1841 2301 2302 28
1842 2301 2303 28
1843 2301 2304 28
1844 2301 2305 28
1845 2306 2307 28
1846 2306 2308 28
1847 2306 2309 28
1848 2306 2310 28
1849 2311 2312 28
1850 2311 2313 28
1851 2311 2314 28
1852 2311 2315 28
1853 2316 2317 28
1854 2316 2318 28
1855 2316 2319 28
1856 2316 2320 28
1857 2321 2322 28
1858 2321 2323 28
1859 2321 2324 28
1860 2321 2325 28
1861 2326 2327 28
1862 2326 2328 28
1863 2326 2329 28
1864 2326 2330 28
1865 2331 2332 28
1866 2331 2333 28
1867 2331 2334 28
1868 2331 2335 28
1869 2336 2337 28
1870 2336 2338 28
1871 2336 2339 28
1872 2336 2340 28
1873 2341 2342 28
1874 2341 2343 28
1875 2341 2344 28
1876 2341 2345 28
1877 2346 2347 28
1878 2346 2348 28
1879 2346 2349 28
1880 2346 2350 28
1881 2351 2352 28
1882 2351 2353 28
1883 2351 2354 28
1884 2351 2355 28
1885 2356 2357 28
1886 2356 2358 28
1887 2356 2359 28
1888 2356 2360 28
1889 2361 2362 28
1890 2361 2363 28
1891 2361 2364 28
1892 2361 2365 28
1893 2366 2367 28
1894 2366 2368 28
1895 2366 2369 28
1896 2366 2370 28
1897 2371 2372 28
1898 2371 2373 28
1899 2371 2374 28
1900 2371 2375 28
1901 2376 2377 28
1902 2376 2378 28
1903 2376 2379 28
1904 2376 2380 28
1905 2381 2382 28
1906 2381 2383 28
1907 2381 2384 28
1908 2381 2385 28
1909 2386 2387 28
1910 2386 2388 28
1911 2386 2389 28
1912 2386 2390 28
1913 2391 2392 28
1914 2391 2393 28
1915 2391 2394 28
1916 2391 2395 28
1917 2396 2397 28
1918 2396 2398 28
1919 2396 2399 28
1920 2396 2400 28
1921 2401 2402 28
1922 2401 2403 28
1923 2401 2404 28
1924 2401 2405 28
1925 2406 2407 28
1926 2406 2408 28
1927 2406 2409 28
1928 2406 2410 28
1929 2411 2412 28
1930 2411 2413 28
1931 2411 2414 28
1932 2411 2415 28
1933 2416 2417 28
1934 2416 2418 28
1935 2416 2419 28
1936 2416 2420 28
1937 2421 2422 28
1938 2421 2423 28
1939 2421 2424 28
1940 2421 2425 28
1941 2426 2427 28
1942 2426 2428 28
1943 2426 2429 28
1944 2426 2430 28
1945 2431 2432 28
1946 2431 2433 28
1947 2431 2434 28
1948 2431 2435 28
1949 2436 2437 28
1950 2436 2438 28
1951 2436 2439 28
1952 2436 2440 28
1953 2441 2442 28
1954 2441 2443 28
1955 2441 2444 28
1956 2441 2445 28
1957 2446 2447 28
1958 2446 2448 28
1959 2446 2449 28
1960 2446 2450 28
1961 2451 2452 28
1962 2451 2453 28
1963 2451 2454 28
1964 2451 2455 28
1965 2456 2457 28
1966 2456 2458 28
1967 2456 2459 28
1968 2456 2460 28
1969 2461 2462 28
1970 2461 2463 28
1971 2461 2464 28
1972 2461 2465 28
1973 2466 2467 28
1974 2466 2468 28
1975 2466 2469 28
1976 2466 2470 28
1977 2471 2472 28
1978 2471 2473 28
1979 2471 2474 28
1980 2471 2475 28
1981 2476 2477 28
1982 2476 2478 28
1983 2476 2479 28
1984 2476 2480 28
1985 2481 2482 28
1986 2481 2483 28
1987 2481 2484 28
1988 2481 2485 28
1989 2486 2487 28
1990 2486 2488 28
1991 2486 2489 28
1992 2486 2490 28
1993 2491 2492 28
1994 2491 2493 28
1995 2491 2494 28
1996 2491 2495 28
1997 2496 2497 28
1998 2496 2498 28
1999 2496 2499 28
2000 2496 2500 28
2001 2501 2502 28
2002 2501 2503 28
2003 2501 2504 28
2004 2501 2505 28
2005 2506 2507 28
2006 2506 2508 28
2007 2506 2509 28
2008 2506 2510 28
2009 2511 2512 28
2010 2511 2513 28
2011 2511 2514 28
2012 2511 2515 28
2013 2516 2517 28
2014 2516 2518 28
2015 2516 2519 28
2016 2516 2520 28
2017 2521 2522 28
2018 2521 2523 28
2019 2521 2524 28
2020 2521 2525 28
2021 2526 2527 28
2022 2526 2528 28
2023 2526 2529 28
2024 2526 2530 28
2025 2531 2532 28
2026 2531 2533 28
2027 2531 2534 28
2028 2531 2535 28
2029 2536 2537 28
2030 2536 2538 28
2031 2536 2539 28
2032 2536 2540 28
2033 2541 2542 28
2034 2541 2543 28
2035 2541 2544 28
2036 2541 2545 28
2037 2546 2547 28
2038 2546 2548 28
2039 2546 2549 28
2040 2546 2550 28
2041 2551 2552 28
2042 2551 2553 28
2043 2551 2554 28
2044 2551 2555 28
2045 2556 2557 28
2046 2556 2558 28
2047 2556 2559 28
2048 2556 2560 28
2049 2561 2562 28
2050 2561 2563 28
2051 2561 2564 28
2052 2561 2565 28
2053 2566 2567 28
2054 2566 2568 28
2055 2566 2569 28
2056 2566 2570 28
2057 2571 2572 28
2058 2571 2573 28
2059 2571 2574 28
2060 2571 2575 28
2061 2576 2577 28
2062 2576 2578 28
2063 2576 2579 28
2064 2576 2580 28
2065 2581 2582 28
2066 2581 2583 28
2067 2581 2584 28
2068 2581 2585 28
2069 2586 2587 28
2070 2586 2588 28
2071 2586 2589 28
2072 2586 2590 28
2073 2591 2592 28
2074 2591 2593 28
2075 2591 2594 28
2076 2591 2595 28
2077 2596 2597 28
2078 2596 2598 28
2079 2596 2599 28
2080 2596 2600 28
2081 2601 2602 28
2082 2601 2603 28
2083 2601 2604 28
2084 2601 2605 28
2085 2606 2607 28
2086 2606 2608 28
2087 2606 2609 28
2088 2606 2610 28
2089 2611 2612 28
2090 2611 2613 28
2091 2611 2614 28
2092 2611 2615 28
2093 2616 2617 28
2094 2616 2618 28
2095 2616 2619 28
2096 2616 2620 28
2097 2621 2622 28
2098 2621 2623 28
2099 2621 2624 28
2100 2621 2625 28
2101 2626 2627 28
2102 2626 2628 28
2103 2626 2629 28
2104 2626 2630 28
2105 2631 2632 28
2106 2631 2633 28
2107 2631 2634 28
2108 2631 2635 28
2109 2636 2637 28
2110 2636 2638 28
2111 2636 2639 28
2112 2636 2640 28
2113 2641 2642 28
2114 2641 2643 28
2115 2641 2644 28
2116 2641 2645 28
2117 2646 2647 28
2118 2646 2648 28
2119 2646 2649 28
2120 2646 2650 28
2121 2651 2652 28
2122 2651 2653 28
2123 2651 2654 28
2124 2651 2655 28
2125 2656 2657 28
2126 2656 2658 28
2127 2656 2659 28
2128 2656 2660 28
2129 2661 2662 28
2130 2661 2663 28
2131 2661 2664 28
2132 2661 2665 28
2133 2666 2667 28
2134 2666 2668 28
2135 2666 2669 28
2136 2666 2670 28
2137 2671 2672 28
2138 2671 2673 28
2139 2671 2674 28
2140 2671 2675 28
2141 2676 2677 28
2142 2676 2678 28
2143 2676 2679 28
2144 2676 2680 28
2145 2681 2682 28
2146 2681 2683 28
2147 2681 2684 28
2148 2681 2685 28
2149 2686 2687 28
2150 2686 2688 28
2151 2686 2689 28
2152 2686 2690 28
2153 2691 2692 28
2154 2691 2693 28
2155 2691 2694 28
2156 2691 2695 28
2157 2696 2697 28
2158 2696 2698 28
2159 2696 2699 28
2160 2696 2700 28
2161 2701 2702 28
2162 2701 2703 28
2163 2701 2704 28
2164 2701 2705 28
2165 2706 2707 28
2166 2706 2708 28
2167 2706 2709 28
2168 2706 2710 28
2169 2711 2712 28
2170 2711 2713 28
2171 2711 2714 28
2172 2711 2715 28
2173 2716 2717 28
2174 2716 2718 28
2175 2716 2719 28
2176 2716 2720 28
2177 2721 2722 28
2178 2721 2723 28
2179 2721 2724 28
2180 2721 2725 28
2181 2726 2727 28
2182 2726 2728 28
2183 2726 2729 28
2184 2726 2730 28
2185 2731 2732 28
2186 2731 2733 28
2187 2731 2734 28
2188 2731 2735 28
2189 2736 2737 28
2190 2736 2738 28
2191 2736 2739 28
2192 2736 2740 28
2193 2741 2742 28
2194 2741 2743 28
2195 2741 2744 28
2196 2741 2745 28
2197 2746 2747 28
2198 2746 2748 28
2199 2746 2749 28
2200 2746 2750 28
2201 2751 2752 28
2202 2751 2753 28
2203 2751 2754 28
2204 2751 2755 28
2205 2756 2757 28
2206 2756 2758 28
2207 2756 2759 28
2208 2756 2760 28
2209 2761 2762 28
2210 2761 2763 28
2211 2761 2764 28
2212 2761 2765 28
2213 2766 2767 28
2214 2766 2768 28
2215 2766 2769 28
2216 2766 2770 28
2217 2771 2772 28
2218 2771 2773 28
2219 2771 2774 28
2220 2771 2775 28
2221 2776 2777 28
2222 2776 2778 28
2223 2776 2779 28
2224 2776 2780 28
2225 2781 2782 28
2226 2781 2783 28
2227 2781 2784 28
2228 2781 2785 28
2229 2786 2787 28
2230 2786 2788 28
2231 2786 2789 28
2232 2786 2790 28
2233 2791 2792 28
2234 2791 2793 28
2235 2791 2794 28
2236 2791 2795 28
2237 2796 2797 28
2238 2796 2798 28
2239 2796 2799 28
2240 2796 2800 28
2241 2801 2802 28
2242 2801 2803 28
2243 2801 2804 28
2244 2801 2805 28
2245 2806 2807 28
2246 2806 2808 28
2247 2806 2809 28
2248 2806 2810 28
2249 2811 2812 28
2250 2811 2813 28
2251 2811 2814 28
2252 2811 2815 28
2253 2816 2817 28
2254 2816 2818 28
2255 2816 2819 28
2256 2816 2820 28
2257 2821 2822 28
2258 2821 2823 28
2259 2821 2824 28
2260 2821 2825 28
2261 2826 2827 28
2262 2826 2828 28
2263 2826 2829 28
2264 2826 2830 28
2265 2831 2832 28
2266 2831 2833 28
2267 2831 2834 28
2268 2831 2835 28
2269 2836 2837 28
2270 2836 2838 28
2271 2836 2839 28
2272 2836 2840 28
2273 2841 2842 28
2274 2841 2843 28
2275 2841 2844 28
2276 2841 2845 28
2277 2846 2847 28
2278 2846 2848 28
2279 2846 2849 28
2280 2846 2850 28
2281 2851 2852 28
2282 2851 2853 28
2283 2851 2854 28
2284 2851 2855 28
2285 2856 2857 28
2286 2856 2858 28
2287 2856 2859 28
2288 2856 2860 28
2289 2861 2862 28
2290 2861 2863 28
2291 2861 2864 28
2292 2861 2865 28
2293 2866 2867 28
2294 2866 2868 28
2295 2866 2869 28
2296 2866 2870 28
2297 2871 2872 28
2298 2871 2873 28
2299 2871 2874 28
2300 2871 2875 28
2301 2876 2877 28
2302 2876 2878 28
2303 2876 2879 28
2304 2876 2880 28
2305 2881 2882 28
2306 2881 2883 28
2307 2881 2884 28
2308 2881 2885 28
2309 2886 2887 28
2310 2886 2888 28
2311 2886 2889 28
2312 2886 2890 28
2313 2891 2892 28
2314 2891 2893 28
2315 2891 2894 28
2316 2891 2895 28
2317 2896 2897 28
2318 2896 2898 28
2319 2896 2899 28
2320 2896 2900 28
2321 2901 2902 28
2322 2901 2903 28
2323 2901 2904 28
2324 2901 2905 28
2325 2906 2907 28
2326 2906 2908 28
2327 2906 2909 28
2328 2906 2910 28
2329 2911 2912 28
2330 2911 2913 28
2331 2911 2914 28
2332 2911 2915 28
2333 2916 2917 28
2334 2916 2918 28
2335 2916 2919 28
2336 2916 2920 28
2337 2921 2922 28
2338 2921 2923 28
2339 2921 2924 28
2340 2921 2925 28
2341 2926 2927 28
2342 2926 2928 28
2343 2926 2929 28
2344 2926 2930 28
2345 2931 2932 28
2346 2931 2933 28
2347 2931 2934 28
2348 2931 2935 28
2349 2936 2937 28
2350 2936 2938 28
2351 2936 2939 28
2352 2936 2940 28
2353 2941 2942 28
2354 2941 2943 28
2355 2941 2944 28
2356 2941 2945 28
2357 2946 2947 28
2358 2946 2948 28
2359 2946 2949 28
2360 2946 2950 28
2361 2951 2952 28
2362 2951 2953 28
2363 2951 2954 28
2364 2951 2955 28
2365 2956 2957 28
2366 2956 2958 28
2367 2956 2959 28
2368 2956 2960 28
2369 2961 2962 28
2370 2961 2963 28
2371 2961 2964 28
2372 2961 2965 28
2373 2966 2967 28
2374 2966 2968 28
2375 2966 2969 28
2376 2966 2970 28
2377 2971 2972 28
2378 2971 2973 28
2379 2971 2974 28
2380 2971 2975 28
2381 2976 2977 28
2382 2976 2978 28
2383 2976 2979 28
2384 2976 2980 28
2385 2981 2982 28
2386 2981 2983 28
2387 2981 2984 28
2388 2981 2985 28
2389 2986 2987 28
2390 2986 2988 28
2391 2986 2989 28
2392 2986 2990 28
2393 2991 2992 28
2394 2991 2993 28
2395 2991 2994 28
2396 2991 2995 28
2397 2996 2997 28
2398 2996 2998 28
2399 2996 2999 28
2400 2996 3000 28
2401 3001 3002 28
2402 3001 3003 28
2403 3001 3004 28
2404 3001 3005 28
2405 3006 3007 28
2406 3006 3008 28
2407 3006 3009 28
2408 3006 3010 28
2409 3011 3012 28
2410 3011 3013 28
2411 3011 3014 28
2412 3011 3015 28
2413 3016 3017 28
2414 3016 3018 28
2415 3016 3019 28
2416 3016 3020 28
2417 3021 3022 28
2418 3021 3023 28
2419 3021 3024 28
2420 3021 3025 28
2421 3026 3027 28
2422 3026 3028 28
2423 3026 3029 28
2424 3026 3030 28
2425 3031 3032 28
2426 3031 3033 28
2427 3031 3034 28
2428 3031 3035 28
2429 3036 3037 28
2430 3036 3038 28
2431 3036 3039 28
2432 3036 3040 28
2433 3041 3042 28
2434 3041 3043 28
2435 3041 3044 28
2436 3041 3045 28
2437 3046 3047 28
2438 3046 3048 28
2439 3046 3049 28
2440 3046 3050 28
2441 3051 3052 28
2442 3051 3053 28
2443 3051 3054 28
2444 3051 3055 28
2445 3056 3057 28
2446 3056 3058 28
2447 3056 3059 28
2448 3056 3060 28
2449 3061 3062 28
2450 3061 3063 28
2451 3061 3064 28
2452 3061 3065 28
2453 3066 3067 28
2454 3066 3068 28
2455 3066 3069 28
2456 3066 3070 28
2457 3071 3072 28
2458 3071 3073 28
2459 3071 3074 28
2460 3071 3075 28
2461 3076 3077 28
2462 3076 3078 28
2463 3076 3079 28
2464 3076 3080 28
2465 3081 3082 28
2466 3081 3083 28
2467 3081 3084 28
2468 3081 3085 28
2469 3086 3087 28
2470 3086 3088 28
2471 3086 3089 28
2472 3086 3090 28
2473 3091 3092 28
2474 3091 3093 28
2475 3091 3094 28
2476 3091 3095 28
2477 3096 3097 28
2478 3096 3098 28
2479 3096 3099 28
2480 3096 3100 28
2481 3101 3102 28
2482 3101 3103 28
2483 3101 3104 28
2484 3101 3105 28
2485 3106 3107 28
2486 3106 3108 28
2487 3106 3109 28
2488 3106 3110 28
2489 3111 3112 28
2490 3111 3113 28
2491 3111 3114 28
2492 3111 3115 28
2493 3116 3117 28
2494 3116 3118 28
2495 3116 3119 28
2496 3116 3120 28
2497 3121 3122 28
2498 3121 3123 28
2499 3121 3124 28
2500 3121 3125 28
2501 3126 3127 28
2502 3126 3128 28
2503 3126 3129 28
2504 3126 3130 28
2505 3131 3132 28
2506 3131 3133 28
2507 3131 3134 28
2508 3131 3135 28
2509 3136 3137 28
2510 3136 3138 28
2511 3136 3139 28
2512 3136 3140 28
2513 3141 3142 28
2514 3141 3143 28
2515 3141 3144 28
2516 3141 3145 28
2517 3146 3147 28
2518 3146 3148 28
2519 3146 3149 28
2520 3146 3150 28
2521 3151 3152 28
2522 3151 3153 28
2523 3151 3154 28
2524 3151 3155 28
2525 3156 3157 28
2526 3156 3158 28
2527 3156 3159 28
2528 3156 3160 28
2529 3161 3162 28
2530 3161 3163 28
2531 3161 3164 28
2532 3161 3165 28
2533 3166 3167 28
2534 3166 3168 28
2535 3166 3169 28
2536 3166 3170 28
2537 3171 3172 28
2538 3171 3173 28
2539 3171 3174 28
2540 3171 3175 28
2541 3176 3177 28
2542 3176 3178 28
2543 3176 3179 28
2544 3176 3180 28
2545 3181 3182 28
2546 3181 3183 28
2547 3181 3184 28
2548 3181 3185 28
2549 3186 3187 28
2550 3186 3188 28
2551 3186 3189 28
2552 3186 3190 28
2553 3191 3192 28
2554 3191 3193 28
2555 3191 3194 28
2556 3191 3195 28
2557 3196 3197 28
2558 3196 3198 28
2559 3196 3199 28
2560 3196 3200 28
2561 3201 3202 28
2562 3201 3203 28
2563 3201 3204 28
2564 3201 3205 28
2565 3206 3207 28
2566 3206 3208 28
2567 3206 3209 28
2568 3206 3210 28
2569 3211 3212 28
2570 3211 3213 28
2571 3211 3214 28
2572 3211 3215 28
2573 3216 3217 28
2574 3216 3218 28
2575 3216 3219 28
2576 3216 3220 28
2577 3221 3222 28
2578 3221 3223 28
2579 3221 3224 28
2580 3221 3225 28
2581 3226 3227 28
2582 3226 3228 28
2583 3226 3229 28
2584 3226 3230 28
2585 3231 3232 28
2586 3231 3233 28
2587 3231 3234 28
2588 3231 3235 28
2589 3236 3237 28
2590 3236 3238 28
2591 3236 3239 28
2592 3236 3240 28
2593 3241 3242 28
2594 3241 3243 28
2595 3241 3244 28
2596 3241 3245 28
2597 3246 3247 28
2598 3246 3248 28
2599 3246 3249 28
2600 3246 3250 28
2601 3251 3252 28
2602 3251 3253 28
2603 3251 3254 28
2604 3251 3255 28
2605 3256 3257 28
2606 3256 3258 28
2607 3256 3259 28
2608 3256 3260 28
2609 3261 3262 28
2610 3261 3263 28
2611 3261 3264 28
2612 3261 3265 28
2613 3266 3267 28
2614 3266 3268 28
2615 3266 3269 28
2616 3266 3270 28
2617 3271 3272 28
2618 3271 3273 28
2619 3271 3274 28
2620 3271 3275 28
2621 3276 3277 28
2622 3276 3278 28
2623 3276 3279 28
2624 3276 3280 28
2625 3281 3282 28
2626 3281 3283 28
2627 3281 3284 28
2628 3281 3285 28
2629 3286 3287 28
2630 3286 3288 28
2631 3286 3289 28
2632 3286 3290 28
2633 3291 3292 28
2634 3291 3293 28
2635 3291 3294 28
2636 3291 3295 28
2637 3296 3297 28
2638 3296 3298 28
2639 3296 3299 28
2640 3296 3300 28
2641 3301 3302 28
2642 3301 3303 28
2643 3301 3304 28
2644 3301 3305 28
2645 3306 3307 28
2646 3306 3308 28
2647 3306 3309 28
2648 3306 3310 28
2649 3311 3312 28
2650 3311 3313 28
2651 3311 3314 28
2652 3311 3315 28
2653 3316 3317 28
2654 3316 3318 28
2655 3316 3319 28
2656 3316 3320 28
2657 3321 3322 28
2658 3321 3323 28
2659 3321 3324 28
2660 3321 3325 28
2661 3326 3327 28
2662 3326 3328 28
2663 3326 3329 28
2664 3326 3330 28
2665 3331 3332 28
2666 3331 3333 28
2667 3331 3334 28
2668 3331 3335 28
2669 3336 3337 28
2670 3336 3338 28
2671 3336 3339 28
2672 3336 3340 28
2673 3341 3342 28
2674 3341 3343 28
2675 3341 3344 28
2676 3341 3345 28
2677 3346 3347 28
2678 3346 3348 28
2679 3346 3349 28
2680 3346 3350 28
2681 3351 3352 28
2682 3351 3353 28
2683 3351 3354 28
2684 3351 3355 28
2685 3356 3357 28
2686 3356 3358 28
2687 3356 3359 28
2688 3356 3360 28
2689 3361 3362 28
2690 3361 3363 28
2691 3361 3364 28
2692 3361 3365 28
2693 3366 3367 28
2694 3366 3368 28
2695 3366 3369 28
2696 3366 3370 28
2697 3371 3372 28
2698 3371 3373 28
2699 3371 3374 28
2700 3371 3375 28
2701 3376 3377 28
2702 3376 3378 28
2703 3376 3379 28
2704 3376 3380 28
2705 3381 3382 28
2706 3381 3383 28
2707 3381 3384 28
2708 3381 3385 28
2709 3386 3387 28
2710 3386 3388 28
2711 3386 3389 28
2712 3386 3390 28
2713 3391 3392 28
2714 3391 3393 28
2715 3391 3394 28
2716 3391 3395 28
2717 3396 3397 28
2718 3396 3398 28
2719 3396 3399 28
2720 3396 3400 28
2721 3401 3402 28
2722 3401 3403 28
2723 3401 3404 28
2724 3401 3405 28
2725 3406 3407 28
2726 3406 3408 28
2727 3406 3409 28
2728 3406 3410 28
2729 3411 3412 28
2730 3411 3413 28
2731 3411 3414 28
2732 3411 3415 28
2733 3416 3417 28
2734 3416 3418 28
2735 3416 3419 28
2736 3416 3420 28
2737 3421 3422 28
2738 3421 3423 28
2739 3421 3424 28
2740 3421 3425 28
2741 3426 3427 28
2742 3426 3428 28
2743 3426 3429 28
2744 3426 3430 28
2745 3431 3432 28
2746 3431 3433 28
2747 3431 3434 28
2748 3431 3435 28
2749 3436 3437 28
2750 3436 3438 28
2751 3436 3439 28
2752 3436 3440 28
2753 3441 3442 28
2754 3441 3443 28
2755 3441 3444 28
2756 3441 3445 28
2757 3446 3447 28
2758 3446 3448 28
2759 3446 3449 28
2760 3446 3450 28
2761 3451 3452 28
2762 3451 3453 28
2763 3451 3454 28
2764 3451 3455 28
2765 3456 3457 28
2766 3456 3458 28
2767 3456 3459 28
2768 3456 3460 28
2769 3461 3462 28
2770 3461 3463 28
2771 3461 3464 28
2772 3461 3465 28
2773 3466 3467 28
2774 3466 3468 28
2775 3466 3469 28
2776 3466 3470 28
2777 3471 3472 28
2778 3471 3473 28
2779 3471 3474 28
2780 3471 3475 28
2781 3476 3477 28
2782 3476 3478 28
2783 3476 3479 28
2784 3476 3480 28
2785 3481 3482 28
2786 3481 3483 28
2787 3481 3484 28
2788 3481 3485 28
2789 3486 3487 28
2790 3486 3488 28
2791 3486 3489 28
2792 3486 3490 28
2793 3491 3492 28
2794 3491 3493 28
2795 3491 3494 28
2796 3491 3495 28
2797 3496 3497 28
2798 3496 3498 28
2799 3496 3499 28
2800 3496 3500 28
2801 3501 3502 28
2802 3501 3503 28
2803 3501 3504 28
2804 3501 3505 28
2805 3506 3507 28
2806 3506 3508 28
2807 3506 3509 28
2808 3506 3510 28
2809 3511 3512 28
2810 3511 3513 28
2811 3511 3514 28
2812 3511 3515 28
2813 3516 3517 28
2814 3516 3518 28
2815 3516 3519 28
2816 3516 3520 28
2817 3521 3522 28
2818 3521 3523 28
2819 3521 3524 28
2820 3521 3525 28
2821 3526 3527 28
2822 3526 3528 28
2823 3526 3529 28
2824 3526 3530 28
2825 3531 3532 28
2826 3531 3533 28
2827 3531 3534 28
2828 3531 3535 28
2829 3536 3537 28
2830 3536 3538 28
2831 3536 3539 28
2832 3536 3540 28
2833 3541 3542 28
2834 3541 3543 28
2835 3541 3544 28
2836 3541 3545 28
2837 3546 3547 28
2838 3546 3548 28
2839 3546 3549 28
2840 3546 3550 28
2841 3551 3552 28
2842 3551 3553 28
2843 3551 3554 28
2844 3551 3555 28
2845 3556 3557 28
2846 3556 3558 28
2847 3556 3559 28
2848 3556 3560 28
2849 3561 3562 28
2850 3561 3563 28
2851 3561 3564 28
2852 3561 3565 28
2853 3566 3567 28
2854 3566 3568 28
2855 3566 3569 28
2856 3566 3570 28
2857 3571 3572 28
2858 3571 3573 28
2859 3571 3574 28
2860 3571 3575 28
2861 3576 3577 28
2862 3576 3578 28
2863 3576 3579 28
2864 3576 3580 28
2865 3581 3582 28
2866 3581 3583 28
2867 3581 3584 28
2868 3581 3585 28
2869 3586 3587 28
2870 3586 3588 28
2871 3586 3589 28
2872 3586 3590 28
2873 3591 3592 28
2874 3591 3593 28
2875 3591 3594 28
2876 3591 3595 28
2877 3596 3597 28
2878 3596 3598 28
2879 3596 3599 28
2880 3596 3600 28
2881 3601 3602 28
2882 3601 3603 28
2883 3601 3604 28
2884 3601 3605 28
2885 3606 3607 28
2886 3606 3608 28
2887 3606 3609 28
2888 3606 3610 28
2889 3611 3612 28
2890 3611 3613 28
2891 3611 3614 28
2892 3611 3615 28
2893 3616 3617 28
2894 3616 3618 28
2895 3616 3619 28
2896 3616 3620 28
2897 3621 3622 28
2898 3621 3623 28
2899 3621 3624 28
2900 3621 3625 28
2901 3626 3627 28
2902 3626 3628 28
2903 3626 3629 28
2904 3626 3630 28
2905 3631 3632 28
2906 3631 3633 28
2907 3631 3634 28
2908 3631 3635 28
2909 3636 3637 28
2910 3636 3638 28
2911 3636 3639 28
2912 3636 3640 28
2913 3641 3642 28
2914 3641 3643 28
2915 3641 3644 28
2916 3641 3645 28
2917 3646 3647 28
2918 3646 3648 28
2919 3646 3649 28
2920 3646 3650 28
2921 3651 3652 28
2922 3651 3653 28
2923 3651 3654 28
2924 3651 3655 28
2925 3656 3657 28
2926 3656 3658 28
2927 3656 3659 28
2928 3656 3660 28
2929 3661 3662 28
2930 3661 3663 28
2931 3661 3664 28
2932 3661 3665 28
2933 3666 3667 28
2934 3666 3668 28
2935 3666 3669 28
2936 3666 3670 28
2937 3671 3672 28
2938 3671 3673 28
2939 3671 3674 28
2940 3671 3675 28
2941 3676 3677 28
2942 3676 3678 28
2943 3676 3679 28
2944 3676 3680 28
2945 3681 3682 28
2946 3681 3683 28
2947 3681 3684 28
2948 3681 3685 28
2949 3686 3687 28
2950 3686 3688 28
2951 3686 3689 28
2952 3686 3690 28
2953 3691 3692 28
2954 3691 3693 28
2955 3691 3694 28
2956 3691 3695 28
2957 3696 3697 28
2958 3696 3698 28
2959 3696 3699 28
2960 3696 3700 28
2961 3701 3702 28
2962 3701 3703 28
2963 3701 3704 28
2964 3701 3705 28
2965 3706 3707 28
2966 3706 3708 28
2967 3706 3709 28
2968 3706 3710 28
2969 3711 3712 28
2970 3711 3713 28
2971 3711 3714 28
2972 3711 3715 28
2973 3716 3717 28
2974 3716 3718 28
2975 3716 3719 28
2976 3716 3720 28
2977 3721 3722 28
2978 3721 3723 28
2979 3721 3724 28
2980 3721 3725 28
2981 3726 3727 28
2982 3726 3728 28
2983 3726 3729 28
2984 3726 3730 28
2985 3731 3732 28
2986 3731 3733 28
2987 3731 3734 28
2988 3731 3735 28
2989 3736 3737 28
2990 3736 3738 28
2991 3736 3739 28
2992 3736 3740 28
2993 3741 3742 28
2994 3741 3743 28
2995 3741 3744 28
2996 3741 3745 28
2997 3746 3747 28
2998 3746 3748 28
2999 3746 3749 28
3000 3746 3750 28
3001 3751 3752 28
3002 3751 3753 28
3003 3751 3754 28
3004 3751 3755 28
3005 3756 3757 28
3006 3756 3758 28
3007 3756 3759 28
3008 3756 3760 28
3009 3761 3762 28
3010 3761 3763 28
3011 3761 3764 28
3012 3761 3765 28
3013 3766 3767 28
3014 3766 3768 28
3015 3766 3769 28
3016 3766 3770 28
3017 3771 3772 28
3018 3771 3773 28
3019 3771 3774 28
3020 3771 3775 28
3021 3776 3777 28
3022 3776 3778 28
3023 3776 3779 28
3024 3776 3780 28
3025 3781 3782 28
3026 3781 3783 28
3027 3781 3784 28
3028 3781 3785 28
3029 3786 3787 28
3030 3786 3788 28
3031 3786 3789 28
3032 3786 3790 28
3033 3791 3792 28
3034 3791 3793 28
3035 3791 3794 28
3036 3791 3795 28
3037 3796 3797 28
3038 3796 3798 28
3039 3796 3799 28
3040 3796 3800 28
3041 3801 3802 28
3042 3801 3803 28
3043 3801 3804 28
3044 3801 3805 28
3045 3806 3807 28
3046 3806 3808 28
3047 3806 3809 28
3048 3806 3810 28
3049 3811 3812 28
3050 3811 3813 28
3051 3811 3814 28
3052 3811 3815 28
3053 3816 3817 28
3054 3816 3818 28
3055 3816 3819 28
3056 3816 3820 28
3057 3821 3822 28
3058 3821 3823 28
3059 3821 3824 28
3060 3821 3825 28
3061 3826 3827 28
3062 3826 3828 28
3063 3826 3829 28
3064 3826 3830 28
3065 3831 3832 28
3066 3831 3833 28
3067 3831 3834 28
3068 3831 3835 28
3069 3836 3837 28
3070 3836 3838 28
3071 3836 3839 28
3072 3836 3840 28
3073 3841 3842 28
3074 3841 3843 28
3075 3841 3844 28
3076 3841 3845 28
3077 3846 3847 28
3078 3846 3848 28
3079 3846 3849 28
3080 3846 3850 28
3081 3851 3852 28
3082 3851 3853 28
3083 3851 3854 28
3084 3851 3855 28
3085 3856 3857 28
3086 3856 3858 28
3087 3856 3859 28
3088 3856 3860 28
3089 3861 3862 28
3090 3861 3863 28
3091 3861 3864 28
3092 3861 3865 28
3093 3866 3867 28
3094 3866 3868 28
3095 3866 3869 28
3096 3866 3870 28
3097 3871 3872 28
3098 3871 3873 28
3099 3871 3874 28
3100 3871 3875 28
3101 3876 3877 28
3102 3876 3878 28
3103 3876 3879 28
3104 3876 3880 28
3105 3881 3882 28
3106 3881 3883 28
3107 3881 3884 28
3108 3881 3885 28
3109 3886 3887 28
3110 3886 3888 28
3111 3886 3889 28
3112 3886 3890 28
3113 3891 3892 28
3114 3891 3893 28
3115 3891 3894 28
3116 3891 3895 28
3117 3896 3897 28
3118 3896 3898 28
3119 3896 3899 28
3120 3896 3900 28
3121 3901 3902 28
3122 3901 3903 28
3123 3901 3904 28
3124 3901 3905 28
3125 3906 3907 28
3126 3906 3908 28
3127 3906 3909 28
3128 3906 3910 28
3129 3911 3912 28
3130 3911 3913 28
3131 3911 3914 28
3132 3911 3915 28
3133 3916 3917 28
3134 3916 3918 28
3135 3916 3919 28
3136 3916 3920 28
3137 3921 3922 28
3138 3921 3923 28
3139 3921 3924 28
3140 3921 3925 28
3141 3926 3927 28
3142 3926 3928 28
3143 3926 3929 28
3144 3926 3930 28
3145 3931 3932 28
3146 3931 3933 28
3147 3931 3934 28
3148 3931 3935 28
3149 3936 3937 28
3150 3936 3938 28
3151 3936 3939 28
3152 3936 3940 28
3153 3941 3942 28
3154 3941 3943 28
3155 3941 3944 28
3156 3941 3945 28
3157 3946 3947 28
3158 3946 3948 28
3159 3946 3949 28
3160 3946 3950 28
3161 3951 3952 28
3162 3951 3953 28
3163 3951 3954 28
3164 3951 3955 28
3165 3956 3957 28
3166 3956 3958 28
3167 3956 3959 28
3168 3956 3960 28
3169 3961 3962 28
3170 3961 3963 28
3171 3961 3964 28
3172 3961 3965 28
3173 3966 3967 28
3174 3966 3968 28
3175 3966 3969 28
3176 3966 3970 28
3177 3971 3972 28
3178 3971 3973 28
3179 3971 3974 28
3180 3971 3975 28
3181 3976 3977 28
3182 3976 3978 28
3183 3976 3979 28
3184 3976 3980 28
3185 3981 3982 28
3186 3981 3983 28
3187 3981 3984 28
3188 3981 3985 28
3189 3986 3987 28
3190 3986 3988 28
3191 3986 3989 28
3192 3986 3990 28
3193 3991 3992 28
3194 3991 3993 28
3195 3991 3994 28
3196 3991 3995 28
3197 3996 3997 28
3198 3996 3998 28
3199 3996 3999 28
3200 3996 4000 28
3201 4001 4002 28
3202 4001 4003 28
3203 4001 4004 28
3204 4001 4005 28
3205 4006 4007 28
3206 4006 4008 28
3207 4006 4009 28
3208 4006 4010 28
3209 4011 4012 28
3210 4011 4013 28
3211 4011 4014 28
3212 4011 4015 28
3213 4016 4017 28
3214 4016 4018 28
3215 4016 4019 28
3216 4016 4020 28
3217 4021 4022 28
3218 4021 4023 28
3219 4021 4024 28
3220 4021 4025 28
3221 4026 4027 28
3222 4026 4028 28
3223 4026 4029 28
3224 4026 4030 28
3225 4031 4032 28
3226 4031 4033 28
3227 4031 4034 28
3228 4031 4035 28
3229 4036 4037 28
3230 4036 4038 28
3231 4036 4039 28
3232 4036 4040 28
3233 4041 4042 28
3234 4041 4043 28
3235 4041 4044 28
3236 4041 4045 28
3237 4046 4047 28
3238 4046 4048 28
3239 4046 4049 28
3240 4046 4050 28
3241 4051 4052 28
3242 4051 4053 28
3243 4051 4054 28
3244 4051 4055 28
3245 4056 4057 28
3246 4056 4058 28
3247 4056 4059 28
3248 4056 4060 28
3249 4061 4062 28
3250 4061 4063 28
3251 4061 4064 28
3252 4061 4065 28
3253 4066 4067 28
3254 4066 4068 28
3255 4066 4069 28
3256 4066 4070 28
3257 4071 4072 28
3258 4071 4073 28
3259 4071 4074 28
3260 4071 4075 28
3261 4076 4077 28
3262 4076 4078 28
3263 4076 4079 28
3264 4076 4080 28
3265 4081 4082 28
3266 4081 4083 28
3267 4081 4084 28
3268 4081 4085 28
3269 4086 4087 28
3270 4086 4088 28
3271 4086 4089 28
3272 4086 4090 28
3273 4091 4092 28
3274 4091 4093 28
3275 4091 4094 28
3276 4091 4095 28
3277 4096 4097 28
3278 4096 4098 28
3279 4096 4099 28
3280 4096 4100 28
3281 4101 4102 28
3282 4101 4103 28
3283 4101 4104 28
3284 4101 4105 28
3285 4106 4107 28
3286 4106 4108 28
3287 4106 4109 28
3288 4106 4110 28
3289 4111 4112 28
3290 4111 4113 28
3291 4111 4114 28
3292 4111 4115 28
3293 4116 4117 28
3294 4116 4118 28
3295 4116 4119 28
3296 4116 4120 28
3297 4121 4122 28
3298 4121 4123 28
3299 4121 4124 28
3300 4121 4125 28
3301 4126 4127 28
3302 4126 4128 28
3303 4126 4129 28
3304 4126 4130 28
3305 4131 4132 28
3306 4131 4133 28
3307 4131 4134 28
3308 4131 4135 28
3309 4136 4137 28
3310 4136 4138 28
3311 4136 4139 28
3312 4136 4140 28
3313 4141 4142 28
3314 4141 4143 28
3315 4141 4144 28
3316 4141 4145 28
3317 4146 4147 28
3318 4146 4148 28
3319 4146 4149 28
3320 4146 4150 28
3321 4151 4152 28
3322 4151 4153 28
3323 4151 4154 28
3324 4151 4155 28
3325 4156 4157 28
3326 4156 4158 28
3327 4156 4159 28
3328 4156 4160 28
3329 4161 4162 28
3330 4161 4163 28
3331 4161 4164 28
3332 4161 4165 28
3333 4166 4167 28
3334 4166 4168 28
3335 4166 4169 28
3336 4166 4170 28
3337 4171 4172 28
3338 4171 4173 28
3339 4171 4174 28
3340 4171 4175 28
3341 4176 4177 28
3342 4176 4178 28
3343 4176 4179 28
3344 4176 4180 28
3345 4181 4182 28
3346 4181 4183 28
3347 4181 4184 28
3348 4181 4185 28
3349 4186 4187 28
3350 4186 4188 28
3351 4186 4189 28
3352 4186 4190 28
3353 4191 4192 28
3354 4191 4193 28
3355 4191 4194 28
3356 4191 4195 28
3357 4196 4197 28
3358 4196 4198 28
3359 4196 4199 28
3360 4196 4200 28
3361 4201 4202 28
3362 4201 4203 28
3363 4201 4204 28
3364 4201 4205 28
3365 4206 4207 28
3366 4206 4208 28
3367 4206 4209 28
3368 4206 4210 28
3369 4211 4212 28
3370 4211 4213 28
3371 4211 4214 28
3372 4211 4215 28
3373 4216 4217 28
3374 4216 4218 28
3375 4216 4219 28
3376 4216 4220 28
3377 4221 4222 28
3378 4221 4223 28
3379 4221 4224 28
3380 4221 4225 28
3381 4226 4227 28
3382 4226 4228 28
3383 4226 4229 28
3384 4226 4230 28
3385 4231 4232 28
3386 4231 4233 28
3387 4231 4234 28
3388 4231 4235 28
3389 4236 4237 28
3390 4236 4238 28
3391 4236 4239 28
3392 4236 4240 28
3393 4241 4242 28
3394 4241 4243 28
3395 4241 4244 28
3396 4241 4245 28
3397 4246 4247 28
3398 4246 4248 28
3399 4246 4249 28
3400 4246 4250 28
3401 4251 4252 28
3402 4251 4253 28
3403 4251 4254 28
3404 4251 4255 28
3405 4256 4257 28
3406 4256 4258 28
3407 4256 4259 28
3408 4256 4260 28
3409 4261 4262 28
3410 4261 4263 28
3411 4261 4264 28
3412 4261 4265 28
3413 4266 4267 28
3414 4266 4268 28
3415 4266 4269 28
3416 4266 4270 28
3417 4271 4272 28
3418 4271 4273 28
3419 4271 4274 28
3420 4271 4275 28
3421 4276 4277 28
3422 4276 4278 28
3423 4276 4279 28
3424 4276 4280 28
3425 4281 4282 28
3426 4281 4283 28
3427 4281 4284 28
3428 4281 4285 28
3429 4286 4287 28
3430 4286 4288 28
3431 4286 4289 28
3432 4286 4290 28
3433 4291 4292 28
3434 4291 4293 28
3435 4291 4294 28
3436 4291 4295 28
3437 4296 4297 28
3438 4296 4298 28
3439 4296 4299 28
3440 4296 4300 28
3441 4301 4302 28
3442 4301 4303 28
3443 4301 4304 28
3444 4301 4305 28
3445 4306 4307 28
3446 4306 4308 28
3447 4306 4309 28
3448 4306 4310 28
3449 4311 4312 28
3450 4311 4313 28
3451 4311 4314 28
3452 4311 4315 28
3453 4316 4317 28
3454 4316 4318 28
3455 4316 4319 28
3456 4316 4320 28
3457 4321 4322 28
3458 4321 4323 28
3459 4321 4324 28
3460 4321 4325 28
3461 4326 4327 28
3462 4326 4328 28
3463 4326 4329 28
3464 4326 4330 28
3465 4331 4332 28
3466 4331 4333 28
3467 4331 4334 28
3468 4331 4335 28
3469 4336 4337 28
3470 4336 4338 28
3471 4336 4339 28
3472 4336 4340 28
3473 4341 4342 28
3474 4341 4343 28
3475 4341 4344 28
3476 4341 4345 28
3477 4346 4347 28
3478 4346 4348 28
3479 4346 4349 28
3480 4346 4350 28
3481 4351 4352 28
3482 4351 4353 28
3483 4351 4354 28
3484 4351 4355 28
3485 4356 4357 28
3486 4356 4358 28
3487 4356 4359 28
3488 4356 4360 28
3489 4361 4362 28
3490 4361 4363 28
3491 4361 4364 28
3492 4361 4365 28
3493 4366 4367 28
3494 4366 4368 28
3495 4366 4369 28
3496 4366 4370 28
3497 4371 4372 28
3498 4371 4373 28
3499 4371 4374 28
3500 4371 4375 28
3501 4376 4377 28
3502 4376 4378 28
3503 4376 4379 28
3504 4376 4380 28
3505 4381 4382 28
3506 4381 4383 28
3507 4381 4384 28
3508 4381 4385 28
3509 4386 4387 28
3510 4386 4388 28
3511 4386 4389 28
3512 4386 4390 28
3513 4391 4392 28
3514 4391 4393 28
3515 4391 4394 28
3516 4391 4395 28
3517 4396 4397 28
3518 4396 4398 28
3519 4396 4399 28
3520 4396 4400 28
3521 4401 4402 28
3522 4401 4403 28
3523 4401 4404 28
3524 4401 4405 28
3525 4406 4407 28
3526 4406 4408 28
3527 4406 4409 28
3528 4406 4410 28
3529 4411 4412 28
3530 4411 4413 28
3531 4411 4414 28
3532 4411 4415 28
3533 4416 4417 28
3534 4416 4418 28
3535 4416 4419 28
3536 4416 4420 28
3537 4421 4422 28
3538 4421 4423 28
3539 4421 4424 28
3540 4421 4425 28
3541 4426 4427 28
3542 4426 4428 28
3543 4426 4429 28
3544 4426 4430 28
3545 4431 4432 28
3546 4431 4433 28
3547 4431 4434 28
3548 4431 4435 28
3549 4436 4437 28
3550 4436 4438 28
3551 4436 4439 28
3552 4436 4440 28
3553 4441 4442 28
3554 4441 4443 28
3555 4441 4444 28
3556 4441 4445 28
3557 4446 4447 28
3558 4446 4448 28
3559 4446 4449 28
3560 4446 4450 28
3561 4451 4452 28
3562 4451 4453 28
3563 4451 4454 28
3564 4451 4455 28
3565 4456 4457 28
3566 4456 4458 28
3567 4456 4459 28
3568 4456 4460 28
3569 4461 4462 28
3570 4461 4463 28
3571 4461 4464 28
3572 4461 4465 28
3573 4466 4467 28
3574 4466 4468 28
3575 4466 4469 28
3576 4466 4470 28
3577 4471 4472 28
3578 4471 4473 28
3579 4471 4474 28
3580 4471 4475 28
3581 4476 4477 28
3582 4476 4478 28
3583 4476 4479 28
3584 4476 4480 28
3585 4481 4482 28
3586 4481 4483 28
3587 4481 4484 28
3588 4481 4485 28
3589 4486 4487 28
3590 4486 4488 28
3591 4486 4489 28
3592 4486 4490 28
3593 4491 4492 28
3594 4491 4493 28
3595 4491 4494 28
3596 4491 4495 28
3597 4496 4497 28
3598 4496 4498 28
3599 4496 4499 28
3600 4496 4500 28
3601 4501 4502 28
3602 4501 4503 28
3603 4501 4504 28
3604 4501 4505 28
3605 4506 4507 28
3606 4506 4508 28
3607 4506 4509 28
3608 4506 4510 28
3609 4511 4512 28
3610 4511 4513 28
3611 4511 4514 28
3612 4511 4515 28
3613 4516 4517 28
3614 4516 4518 28
3615 4516 4519 28
3616 4516 4520 28
3617 4521 4522 28
3618 4521 4523 28
3619 4521 4524 28
3620 4521 4525 28
3621 4526 4527 28
3622 4526 4528 28
3623 4526 4529 28
3624 4526 4530 28
3625 4531 4532 28
3626 4531 4533 28
3627 4531 4534 28
3628 4531 4535 28
3629 4536 4537 28
3630 4536 4538 28
3631 4536 4539 28
3632 4536 4540 28
3633 4541 4542 28
3634 4541 4543 28
3635 4541 4544 28
3636 4541 4545 28
3637 4546 4547 28
3638 4546 4548 28
3639 4546 4549 28
3640 4546 4550 28
3641 4551 4552 28
3642 4551 4553 28
3643 4551 4554 28
3644 4551 4555 28
3645 4556 4557 28
3646 4556 4558 28
3647 4556 4559 28
3648 4556 4560 28
3649 4561 4562 28
3650 4561 4563 28
3651 4561 4564 28
3652 4561 4565 28
3653 4566 4567 28
3654 4566 4568 28
3655 4566 4569 28
3656 4566 4570 28
3657 4571 4572 28
3658 4571 4573 28
3659 4571 4574 28
3660 4571 4575 28
3661 4576 4577 28
3662 4576 4578 28
3663 4576 4579 28
3664 4576 4580 28
3665 4581 4582 28
3666 4581 4583 28
3667 4581 4584 28
3668 4581 4585 28
3669 4586 4587 28
3670 4586 4588 28
3671 4586 4589 28
3672 4586 4590 28
3673 4591 4592 28
3674 4591 4593 28
3675 4591 4594 28
3676 4591 4595 28
3677 4596 4597 28
3678 4596 4598 28
3679 4596 4599 28
3680 4596 4600 28
3681 4601 4602 28
3682 4601 4603 28
3683 4601 4604 28
3684 4601 4605 28
3685 4606 4607 28
3686 4606 4608 28
3687 4606 4609 28
3688 4606 4610 28
3689 4611 4612 28
3690 4611 4613 28
3691 4611 4614 28
3692 4611 4615 28
3693 4616 4617 28
3694 4616 4618 28
3695 4616 4619 28
3696 4616 4620 28
3697 4621 4622 28
3698 4621 4623 28
3699 4621 4624 28
3700 4621 4625 28
3701 4626 4627 28
3702 4626 4628 28
3703 4626 4629 28
3704 4626 4630 28
3705 4631 4632 28
3706 4631 4633 28
3707 4631 4634 28
3708 4631 4635 28
3709 4636 4637 28
3710 4636 4638 28
3711 4636 4639 28
3712 4636 4640 28
3713 4641 4642 28
3714 4641 4643 28
3715 4641 4644 28
3716 4641 4645 28
3717 4646 4647 28
3718 4646 4648 28
3719 4646 4649 28
3720 4646 4650 28
3721 4651 4652 28
3722 4651 4653 28
3723 4651 4654 28
3724 4651 4655 28
3725 4656 4657 28
3726 4656 4658 28
3727 4656 4659 28
3728 4656 4660 28
3729 4661 4662 28
3730 4661 4663 28
3731 4661 4664 28
3732 4661 4665 28
3733 4666 4667 28
3734 4666 4668 28
3735 4666 4669 28
3736 4666 4670 28
3737 4671 4672 28
3738 4671 4673 28
3739 4671 4674 28
3740 4671 4675 28
3741 4676 4677 28
3742 4676 4678 28
3743 4676 4679 28
3744 4676 4680 28
3745 4681 4682 28
3746 4681 4683 28
3747 4681 4684 28
3748 4681 4685 28
3749 4686 4687 28
3750 4686 4688 28
3751 4686 4689 28
3752 4686 4690 28
3753 4691 4692 28
3754 4691 4693 28
3755 4691 4694 28
3756 4691 4695 28
3757 4696 4697 28
3758 4696 4698 28
3759 4696 4699 28
3760 4696 4700 28
3761 4701 4702 28
3762 4701 4703 28
3763 4701 4704 28
3764 4701 4705 28
3765 4706 4707 28
3766 4706 4708 28
3767 4706 4709 28
3768 4706 4710 28
3769 4711 4712 28
3770 4711 4713 28
3771 4711 4714 28
3772 4711 4715 28
3773 4716 4717 28
3774 4716 4718 28
3775 4716 4719 28
3776 4716 4720 28
3777 4721 4722 28
3778 4721 4723 28
3779 4721 4724 28
3780 4721 4725 28
3781 4726 4727 28
3782 4726 4728 28
3783 4726 4729 28
3784 4726 4730 28
3785 4731 4732 28
3786 4731 4733 28
3787 4731 4734 28
3788 4731 4735 28
3789 4736 4737 28
3790 4736 4738 28
3791 4736 4739 28
3792 4736 4740 28
3793 4741 4742 28
3794 4741 4743 28
3795 4741 4744 28
3796 4741 4745 28
3797 4746 4747 28
3798 4746 4748 28
3799 4746 4749 28
3800 4746 4750 28
3801 4751 4752 28
3802 4751 4753 28
3803 4751 4754 28
3804 4751 4755 28
3805 4756 4757 28
3806 4756 4758 28
3807 4756 4759 28
3808 4756 4760 28
3809 4761 4762 28
3810 4761 4763 28
3811 4761 4764 28
3812 4761 4765 28
3813 4766 4767 28
3814 4766 4768 28
3815 4766 4769 28
3816 4766 4770 28
3817 4771 4772 28
3818 4771 4773 28
3819 4771 4774 28
3820 4771 4775 28
3821 4776 4777 28
3822 4776 4778 28
3823 4776 4779 28
3824 4776 4780 28
3825 4781 4782 28
3826 4781 4783 28
3827 4781 4784 28
3828 4781 4785 28
3829 4786 4787 28
3830 4786 4788 28
3831 4786 4789 28
3832 4786 4790 28
3833 4791 4792 28
3834 4791 4793 28
3835 4791 4794 28
3836 4791 4795 28
3837 4796 4797 28
3838 4796 4798 28
3839 4796 4799 28
3840 4796 4800 28
3841 4801 4802 28
3842 4801 4803 28
3843 4801 4804 28
3844 4801 4805 28
3845 4806 4807 28
3846 4806 4808 28
3847 4806 4809 28
3848 4806 4810 28
3849 4811 4812 28
3850 4811 4813 28
3851 4811 4814 28
3852 4811 4815 28
3853 4816 4817 28
3854 4816 4818 28
3855 4816 4819 28
3856 4816 4820 28
3857 4821 4822 28
3858 4821 4823 28
3859 4821 4824 28
3860 4821 4825 28
3861 4826 4827 28
3862 4826 4828 28
3863 4826 4829 28
3864 4826 4830 28
3865 4831 4832 28
3866 4831 4833 28
3867 4831 4834 28
3868 4831 4835 28
3869 4836 4837 28
3870 4836 4838 28
3871 4836 4839 28
3872 4836 4840 28
3873 4841 4842 28
3874 4841 4843 28
3875 4841 4844 28
3876 4841 4845 28
3877 4846 4847 28
3878 4846 4848 28
3879 4846 4849 28
3880 4846 4850 28
3881 4851 4852 28
3882 4851 4853 28
3883 4851 4854 28
3884 4851 4855 28
3885 4856 4857 28
3886 4856 4858 28
3887 4856 4859 28
3888 4856 4860 28
3889 4861 4862 28
3890 4861 4863 28
3891 4861 4864 28
3892 4861 4865 28
3893 4866 4867 28
3894 4866 4868 28
3895 4866 4869 28
3896 4866 4870 28
3897 4871 4872 28
3898 4871 4873 28
3899 4871 4874 28
3900 4871 4875 28
3901 4876 4877 28
3902 4876 4878 28
3903 4876 4879 28
3904 4876 4880 28
3905 4881 4882 28
3906 4881 4883 28
3907 4881 4884 28
3908 4881 4885 28
3909 4886 4887 28
3910 4886 4888 28
3911 4886 4889 28
3912 4886 4890 28
3913 4891 4892 28
3914 4891 4893 28
3915 4891 4894 28
3916 4891 4895 28
3917 4896 4897 28
3918 4896 4898 28
3919 4896 4899 28
3920 4896 4900 28
3921 4901 4902 28
3922 4901 4903 28
3923 4901 4904 28
3924 4901 4905 28
3925 4906 4907 28
3926 4906 4908 28
3927 4906 4909 28
3928 4906 4910 28
3929 4911 4912 28
3930 4911 4913 28
3931 4911 4914 28
3932 4911 4915 28
3933 4916 4917 28
3934 4916 4918 28
3935 4916 4919 28
3936 4916 4920 28
3937 4921 4922 28
3938 4921 4923 28
3939 4921 4924 28
3940 4921 4925 28
3941 4926 4927 28
3942 4926 4928 28
3943 4926 4929 28
3944 4926 4930 28
3945 4931 4932 28
3946 4931 4933 28
3947 4931 4934 28
3948 4931 4935 28
3949 4936 4937 28
3950 4936 4938 28
3951 4936 4939 28
3952 4936 4940 28
3953 4941 4942 28
3954 4941 4943 28
3955 4941 4944 28
3956 4941 4945 28
3957 4946 4947 28
3958 4946 4948 28
3959 4946 4949 28
3960 4946 4950 28
3961 4951 4952 28
3962 4951 4953 28
3963 4951 4954 28
3964 4951 4955 28
3965 4956 4957 28
3966 4956 4958 28
3967 4956 4959 28
3968 4956 4960 28
3969 4961 4962 28
3970 4961 4963 28
3971 4961 4964 28
3972 4961 4965 28
3973 4966 4967 28
3974 4966 4968 28
3975 4966 4969 28
3976 4966 4970 28
3977 4971 4972 28
3978 4971 4973 28
3979 4971 4974 28
3980 4971 4975 28
3981 4976 4977 28
3982 4976 4978 28
3983 4976 4979 28
3984 4976 4980 28
3985 4981 4982 28
3986 4981 4983 28
3987 4981 4984 28
3988 4981 4985 28
3989 4986 4987 28
3990 4986 4988 28
3991 4986 4989 28
3992 4986 4990 28
3993 4991 4992 28
3994 4991 4993 28
3995 4991 4994 28
3996 4991 4995 28
3997 4996 4997 28
3998 4996 4998 28
3999 4996 4999 28
4000 4996 5000 28
4001 5001 5002 28
4002 5001 5003 28
4003 5001 5004 28
4004 5001 5005 28
4005 5006 5007 28
4006 5006 5008 28
4007 5006 5009 28
4008 5006 5010 28
4009 5011 5012 28
4010 5011 5013 28
4011 5011 5014 28
4012 5011 5015 28
4013 5016 5017 28
4014 5016 5018 28
4015 5016 5019 28
4016 5016 5020 28
4017 5021 5022 28
4018 5021 5023 28
4019 5021 5024 28
4020 5021 5025 28
4021 5026 5027 28
4022 5026 5028 28
4023 5026 5029 28
4024 5026 5030 28
4025 5031 5032 28
4026 5031 5033 28
4027 5031 5034 28
4028 5031 5035 28
4029 5036 5037 28
4030 5036 5038 28
4031 5036 5039 28
4032 5036 5040 28
4033 5041 5042 28
4034 5041 5043 28
4035 5041 5044 28
4036 5041 5045 28
4037 5046 5047 28
4038 5046 5048 28
4039 5046 5049 28
4040 5046 5050 28
4041 5051 5052 28
4042 5051 5053 28
4043 5051 5054 28
4044 5051 5055 28
4045 5056 5057 28
4046 5056 5058 28
4047 5056 5059 28
4048 5056 5060 28
4049 5061 5062 28
4050 5061 5063 28
4051 5061 5064 28
4052 5061 5065 28
4053 5066 5067 28
4054 5066 5068 28
4055 5066 5069 28
4056 5066 5070 28
4057 5071 5072 28
4058 5071 5073 28
4059 5071 5074 28
4060 5071 5075 28
4061 5076 5077 28
4062 5076 5078 28
4063 5076 5079 28
4064 5076 5080 28
4065 5081 5082 28
4066 5081 5083 28
4067 5081 5084 28
4068 5081 5085 28
4069 5086 5087 28
4070 5086 5088 28
4071 5086 5089 28
4072 5086 5090 28
4073 5091 5092 28
4074 5091 5093 28
4075 5091 5094 28
4076 5091 5095 28
4077 5096 5097 28
4078 5096 5098 28
4079 5096 5099 28
4080 5096 5100 28
4081 5101 5102 28
4082 5101 5103 28
4083 5101 5104 28
4084 5101 5105 28
4085 5106 5107 28
4086 5106 5108 28
4087 5106 5109 28
4088 5106 5110 28
4089 5111 5112 28
4090 5111 5113 28
4091 5111 5114 28
4092 5111 5115 28
4093 5116 5117 28
4094 5116 5118 28
4095 5116 5119 28
4096 5116 5120 28
4097 5121 5122 28
4098 5121 5123 28
4099 5121 5124 28
4100 5121 5125 28
4101 5126 5127 28
4102 5126 5128 28
4103 5126 5129 28
4104 5126 5130 28
4105 5131 5132 28
4106 5131 5133 28
4107 5131 5134 28
4108 5131 5135 28
4109 5136 5137 28
4110 5136 5138 28
4111 5136 5139 28
4112 5136 5140 28
4113 5141 5142 28
4114 5141 5143 28
4115 5141 5144 28
4116 5141 5145 28
4117 5146 5147 28
4118 5146 5148 28
4119 5146 5149 28
4120 5146 5150 28
4121 5151 5152 28
4122 5151 5153 28
4123 5151 5154 28
4124 5151 5155 28
4125 5156 5157 28
4126 5156 5158 28
4127 5156 5159 28
4128 5156 5160 28
4129 5161 5162 28
4130 5161 5163 28
4131 5161 5164 28
4132 5161 5165 28
4133 5166 5167 28
4134 5166 5168 28
4135 5166 5169 28
4136 5166 5170 28
4137 5171 5172 28
4138 5171 5173 28
4139 5171 5174 28
4140 5171 5175 28
4141 5176 5177 28
4142 5176 5178 28
4143 5176 5179 28
4144 5176 5180 28
4145 5181 5182 28
4146 5181 5183 28
4147 5181 5184 28
4148 5181 5185 28
4149 5186 5187 28
4150 5186 5188 28
4151 5186 5189 28
4152 5186 5190 28
4153 5191 5192 28
4154 5191 5193 28
4155 5191 5194 28
4156 5191 5195 28
4157 5196 5197 28
4158 5196 5198 28
4159 5196 5199 28
4160 5196 5200 28
4161 5201 5202 28
4162 5201 5203 28
4163 5201 5204 28
4164 5201 5205 28
4165 5206 5207 28
4166 5206 5208 28
4167 5206 5209 28
4168 5206 5210 28
4169 5211 5212 28
4170 5211 5213 28
4171 5211 5214 28
4172 5211 5215 28
4173 5216 5217 28
4174 5216 5218 28
4175 5216 5219 28
4176 5216 5220 28
4177 5221 5222 28
4178 5221 5223 28
4179 5221 5224 28
4180 5221 5225 28
4181 5226 5227 28
4182 5226 5228 28
4183 5226 5229 28
4184 5226 5230 28
4185 5231 5232 28
4186 5231 5233 28
4187 5231 5234 28
4188 5231 5235 28
4189 5236 5237 28
4190 5236 5238 28
4191 5236 5239 28
4192 5236 5240 28
4193 5241 5242 28
4194 5241 5243 28
4195 5241 5244 28
4196 5241 5245 28
4197 5246 5247 28
4198 5246 5248 28
4199 5246 5249 28
4200 5246 5250 28
4201 5251 5252 28
4202 5251 5253 28
4203 5251 5254 28
4204 5251 5255 28
4205 5256 5257 28
4206 5256 5258 28
4207 5256 5259 28
4208 5256 5260 28
4209 5261 5262 28
4210 5261 5263 28
4211 5261 5264 28
4212 5261 5265 28
4213 5266 5267 28
4214 5266 5268 28
4215 5266 5269 28
4216 5266 5270 28
4217 5271 5272 28
4218 5271 5273 28
4219 5271 5274 28
4220 5271 5275 28
4221 5276 5277 28
4222 5276 5278 28
4223 5276 5279 28
4224 5276 5280 28
4225 5281 5282 28
4226 5281 5283 28
4227 5281 5284 28
4228 5281 5285 28
4229 5286 5287 28
4230 5286 5288 28
4231 5286 5289 28
4232 5286 5290 28
4233 5291 5292 28
4234 5291 5293 28
4235 5291 5294 28
4236 5291 5295 28
4237 5296 5297 28
4238 5296 5298 28
4239 5296 5299 28
4240 5296 5300 28
4241 5301 5302 28
4242 5301 5303 28
4243 5301 5304 28
4244 5301 5305 28
4245 5306 5307 28
4246 5306 5308 28
4247 5306 5309 28
4248 5306 5310 28
4249 5311 5312 28
4250 5311 5313 28
4251 5311 5314 28
4252 5311 5315 28
4253 5316 5317 28
4254 5316 5318 28
4255 5316 5319 28
4256 5316 5320 28
4257 5321 5322 28
4258 5321 5323 28
4259 5321 5324 28
4260 5321 5325 28
4261 5326 5327 28
4262 5326 5328 28
4263 5326 5329 28
4264 5326 5330 28
4265 5331 5332 28
4266 5331 5333 28
4267 5331 5334 28
4268 5331 5335 28
4269 5336 5337 28
4270 5336 5338 28
4271 5336 5339 28
4272 5336 5340 28
4273 5341 5342 28
4274 5341 5343 28
4275 5341 5344 28
4276 5341 5345 28
4277 5346 5347 28
4278 5346 5348 28
4279 5346 5349 28
4280 5346 5350 28
4281 5351 5352 28
4282 5351 5353 28
4283 5351 5354 28
4284 5351 5355 28
4285 5356 5357 28
4286 5356 5358 28
4287 5356 5359 28
4288 5356 5360 28
4289 5361 5362 28
4290 5361 5363 28
4291 5361 5364 28
4292 5361 5365 28
4293 5366 5367 28
4294 5366 5368 28
4295 5366 5369 28
4296 5366 5370 28
4297 5371 5372 28
4298 5371 5373 28
4299 5371 5374 28
4300 5371 5375 28
4301 5376 5377 28
4302 5376 5378 28
4303 5376 5379 28
4304 5376 5380 28
4305 5381 5382 28
4306 5381 5383 28
4307 5381 5384 28
4308 5381 5385 28
4309 5386 5387 28
4310 5386 5388 28
4311 5386 5389 28
4312 5386 5390 28
4313 5391 5392 28
4314 5391 5393 28
4315 5391 5394 28
4316 5391 5395 28
4317 5396 5397 28
4318 5396 5398 28
4319 5396 5399 28
4320 5396 5400 28
4321 5401 5402 28
4322 5401 5403 28
4323 5401 5404 28
4324 5401 5405 28
4325 5406 5407 28
4326 5406 5408 28
4327 5406 5409 28
4328 5406 5410 28
4329 5411 5412 28
4330 5411 5413 28
4331 5411 5414 28
4332 5411 5415 28
4333 5416 5417 28
4334 5416 5418 28
4335 5416 5419 28
4336 5416 5420 28
4337 5421 5422 28
4338 5421 5423 28
4339 5421 5424 28
4340 5421 5425 28
4341 5426 5427 28
4342 5426 5428 28
4343 5426 5429 28
4344 5426 5430 28
4345 5431 5432 28
4346 5431 5433 28
4347 5431 5434 28
4348 5431 5435 28
4349 5436 5437 28
4350 5436 5438 28
4351 5436 5439 28
4352 5436 5440 28
4353 5441 5442 28
4354 5441 5443 28
4355 5441 5444 28
4356 5441 5445 28
4357 5446 5447 28
4358 5446 5448 28
4359 5446 5449 28
4360 5446 5450 28
4361 5451 5452 28
4362 5451 5453 28
4363 5451 5454 28
4364 5451 5455 28
4365 5456 5457 28
4366 5456 5458 28
4367 5456 5459 28
4368 5456 5460 28
4369 5461 5462 28
4370 5461 5463 28
4371 5461 5464 28
4372 5461 5465 28
4373 5466 5467 28
4374 5466 5468 28
4375 5466 5469 28
4376 5466 5470 28
4377 5471 5472 28
4378 5471 5473 28
4379 5471 5474 28
4380 5471 5475 28
4381 5476 5477 28
4382 5476 5478 28
4383 5476 5479 28
4384 5476 5480 28
4385 5481 5482 28
4386 5481 5483 28
4387 5481 5484 28
4388 5481 5485 28
4389 5486 5487 28
4390 5486 5488 28
4391 5486 5489 28
4392 5486 5490 28
4393 5491 5492 28
4394 5491 5493 28
4395 5491 5494 28
4396 5491 5495 28
4397 5496 5497 28
4398 5496 5498 28
4399 5496 5499 28
4400 5496 5500 28
4401 5501 5502 28
4402 5501 5503 28
4403 5501 5504 28
4404 5501 5505 28
4405 5506 5507 28
4406 5506 5508 28
4407 5506 5509 28
4408 5506 5510 28
4409 5511 5512 28
4410 5511 5513 28
4411 5511 5514 28
4412 5511 5515 28
4413 5516 5517 28
4414 5516 5518 28
4415 5516 5519 28
4416 5516 5520 28
4417 5521 5522 28
4418 5521 5523 28
4419 5521 5524 28
4420 5521 5525 28
4421 5526 5527 28
4422 5526 5528 28
4423 5526 5529 28
4424 5526 5530 28
4425 5531 5532 28
4426 5531 5533 28
4427 5531 5534 28
4428 5531 5535 28
4429 5536 5537 28
4430 5536 5538 28
4431 5536 5539 28
4432 5536 5540 28
4433 5541 5542 28
4434 5541 5543 28
4435 5541 5544 28
4436 5541 5545 28
4437 5546 5547 28
4438 5546 5548 28
4439 5546 5549 28
4440 5546 5550 28
4441 5551 5552 28
4442 5551 5553 28
4443 5551 5554 28
4444 5551 5555 28
4445 5556 5557 28
4446 5556 5558 28
4447 5556 5559 28
4448 5556 5560 28
4449 5561 5562 28
4450 5561 5563 28
4451 5561 5564 28
4452 5561 5565 28
4453 5566 5567 28
4454 5566 5568 28
4455 5566 5569 28
4456 5566 5570 28
4457 5571 5572 28
4458 5571 5573 28
4459 5571 5574 28
4460 5571 5575 28
4461 5576 5577 28
4462 5576 5578 28
4463 5576 5579 28
4464 5576 5580 28
4465 5581 5582 28
4466 5581 5583 28
4467 5581 5584 28
4468 5581 5585 28
4469 5586 5587 28
4470 5586 5588 28
4471 5586 5589 28
4472 5586 5590 28
4473 5591 5592 28
4474 5591 5593 28
4475 5591 5594 28
4476 5591 5595 28
4477 5596 5597 28
4478 5596 5598 28
4479 5596 5599 28
4480 5596 5600 28
4481 5601 5602 28
4482 5601 5603 28
4483 5601 5604 28
4484 5601 5605 28
4485 5606 5607 28
4486 5606 5608 28
4487 5606 5609 28
4488 5606 5610 28
4489 5611 5612 28
4490 5611 5613 28
4491 5611 5614 28
4492 5611 5615 28
4493 5616 5617 28
4494 5616 5618 28
4495 5616 5619 28
4496 5616 5620 28
4497 5621 5622 28
4498 5621 5623 28
4499 5621 5624 28
4500 5621 5625 28
4501 5626 5627 28
4502 5626 5628 28
4503 5626 5629 28
4504 5626 5630 28
4505 5631 5632 28
4506 5631 5633 28
4507 5631 5634 28
4508 5631 5635 28
4509 5636 5637 28
4510 5636 5638 28
4511 5636 5639 28
4512 5636 5640 28
4513 5641 5642 28
4514 5641 5643 28
4515 5641 5644 28
4516 5641 5645 28
4517 5646 5647 28
4518 5646 5648 28
4519 5646 5649 28
4520 5646 5650 28
4521 5651 5652 28
4522 5651 5653 28
4523 5651 5654 28
4524 5651 5655 28
4525 5656 5657 28
4526 5656 5658 28
4527 5656 5659 28
4528 5656 5660 28
4529 5661 5662 28
4530 5661 5663 28
4531 5661 5664 28
4532 5661 5665 28
4533 5666 5667 28
4534 5666 5668 28
4535 5666 5669 28
4536 5666 5670 28
4537 5671 5672 28
4538 5671 5673 28
4539 5671 5674 28
4540 5671 5675 28
4541 5676 5677 28
4542 5676 5678 28
4543 5676 5679 28
4544 5676 5680 28
4545 5681 5682 28
4546 5681 5683 28
4547 5681 5684 28
4548 5681 5685 28
4549 5686 5687 28
4550 5686 5688 28
4551 5686 5689 28
4552 5686 5690 28
4553 5691 5692 28
4554 5691 5693 28
4555 5691 5694 28
4556 5691 5695 28
4557 5696 5697 28
4558 5696 5698 28
4559 5696 5699 28
4560 5696 5700 28
4561 5701 5702 28
4562 5701 5703 28
4563 5701 5704 28
4564 5701 5705 28
4565 5706 5707 28
4566 5706 5708 28
4567 5706 5709 28
4568 5706 5710 28
4569 5711 5712 28
4570 5711 5713 28
4571 5711 5714 28
4572 5711 5715 28
4573 5716 5717 28
4574 5716 5718 28
4575 5716 5719 28
4576 5716 5720 28
4577 5721 5722 28
4578 5721 5723 28
4579 5721 5724 28
4580 5721 5725 28
4581 5726 5727 28
4582 5726 5728 28
4583 5726 5729 28
4584 5726 5730 28
4585 5731 5732 28
4586 5731 5733 28
4587 5731 5734 28
4588 5731 5735 28
4589 5736 5737 28
4590 5736 5738 28
4591 5736 5739 28
4592 5736 5740 28
4593 5741 5742 28
4594 5741 5743 28
4595 5741 5744 28
4596 5741 5745 28
4597 5746 5747 28
4598 5746 5748 28
4599 5746 5749 28
4600 5746 5750 28
4601 5751 5752 28
4602 5751 5753 28
4603 5751 5754 28
4604 5751 5755 28
4605 5756 5757 28
4606 5756 5758 28
4607 5756 5759 28
4608 5756 5760 28
4609 5761 5762 28
4610 5761 5763 28
4611 5761 5764 28
4612 5761 5765 28
4613 5766 5767 28
4614 5766 5768 28
4615 5766 5769 28
4616 5766 5770 28
4617 5771 5772 28
4618 5771 5773 28
4619 5771 5774 28
4620 5771 5775 28
4621 5776 5777 28
4622 5776 5778 28
4623 5776 5779 28
4624 5776 5780 28
4625 5781 5782 28
4626 5781 5783 28
4627 5781 5784 28
4628 5781 5785 28
4629 5786 5787 28
4630 5786 5788 28
4631 5786 5789 28
4632 5786 5790 28
4633 5791 5792 28
4634 5791 5793 28
4635 5791 5794 28
4636 5791 5795 28
4637 5796 5797 28
4638 5796 5798 28
4639 5796 5799 28
4640 5796 5800 28
4641 5801 5802 28
4642 5801 5803 28
4643 5801 5804 28
4644 5801 5805 28
4645 5806 5807 28
4646 5806 5808 28
4647 5806 5809 28
4648 5806 5810 28
4649 5811 5812 28
4650 5811 5813 28
4651 5811 5814 28
4652 5811 5815 28
4653 5816 5817 28
4654 5816 5818 28
4655 5816 5819 28
4656 5816 5820 28
4657 5821 5822 28
4658 5821 5823 28
4659 5821 5824 28
4660 5821 5825 28
4661 5826 5827 28
4662 5826 5828 28
4663 5826 5829 28
4664 5826 5830 28
4665 5831 5832 28
4666 5831 5833 28
4667 5831 5834 28
4668 5831 5835 28
4669 5836 5837 28
4670 5836 5838 28
4671 5836 5839 28
4672 5836 5840 28
4673 5841 5842 28
4674 5841 5843 28
4675 5841 5844 28
4676 5841 5845 28
4677 5846 5847 28
4678 5846 5848 28
4679 5846 5849 28
4680 5846 5850 28
4681 5851 5852 28
4682 5851 5853 28
4683 5851 5854 28
4684 5851 5855 28
4685 5856 5857 28
4686 5856 5858 28
4687 5856 5859 28
4688 5856 5860 28
4689 5861 5862 28
4690 5861 5863 28
4691 5861 5864 28
4692 5861 5865 28
4693 5866 5867 28
4694 5866 5868 28
4695 5866 5869 28
4696 5866 5870 28
4697 5871 5872 28
4698 5871 5873 28
4699 5871 5874 28
4700 5871 5875 28
4701 5876 5877 28
4702 5876 5878 28
4703 5876 5879 28
4704 5876 5880 28
4705 5881 5882 28
4706 5881 5883 28
4707 5881 5884 28
4708 5881 5885 28
4709 5886 5887 28
4710 5886 5888 28
4711 5886 5889 28
4712 5886 5890 28
4713 5891 5892 28
4714 5891 5893 28
4715 5891 5894 28
4716 5891 5895 28
4717 5896 5897 28
4718 5896 5898 28
4719 5896 5899 28
4720 5896 5900 28
4721 5901 5902 28
4722 5901 5903 28
4723 5901 5904 28
4724 5901 5905 28
4725 5906 5907 28
4726 5906 5908 28
4727 5906 5909 28
4728 5906 5910 28
4729 5911 5912 28
4730 5911 5913 28
4731 5911 5914 28
4732 5911 5915 28
4733 5916 5917 28
4734 5916 5918 28
4735 5916 5919 28
4736 5916 5920 28
4737 5921 5922 28
4738 5921 5923 28
4739 5921 5924 28
4740 5921 5925 28
4741 5926 5927 28
4742 5926 5928 28
4743 5926 5929 28
4744 5926 5930 28
4745 5931 5932 28
4746 5931 5933 28
4747 5931 5934 28
4748 5931 5935 28
4749 5936 5937 28
4750 5936 5938 28
4751 5936 5939 28
4752 5936 5940 28
4753 5941 5942 28
4754 5941 5943 28
4755 5941 5944 28
4756 5941 5945 28
4757 5946 5947 28
4758 5946 5948 28
4759 5946 5949 28
4760 5946 5950 28
4761 5951 5952 28
4762 5951 5953 28
4763 5951 5954 28
4764 5951 5955 28
4765 5956 5957 28
4766 5956 5958 28
4767 5956 5959 28
4768 5956 5960 28
4769 5961 5962 28
4770 5961 5963 28
4771 5961 5964 28
4772 5961 5965 28
4773 5966 5967 28
4774 5966 5968 28
4775 5966 5969 28
4776 5966 5970 28
4777 5971 5972 28
4778 5971 5973 28
4779 5971 5974 28
4780 5971 5975 28
4781 5976 5977 28
4782 5976 5978 28
4783 5976 5979 28
4784 5976 5980 28
4785 5981 5982 28
4786 5981 5983 28
4787 5981 5984 28
4788 5981 5985 28
4789 5986 5987 28
4790 5986 5988 28
4791 5986 5989 28
4792 5986 5990 28
4793 5991 5992 28
4794 5991 5993 28
4795 5991 5994 28
4796 5991 5995 28
4797 5996 5997 28
4798 5996 5998 28
4799 5996 5999 28
4800 5996 6000 28
4801 6001 6002 28
4802 6001 6003 28
4803 6001 6004 28
4804 6001 6005 28
4805 6006 6007 28
4806 6006 6008 28
4807 6006 6009 28
4808 6006 6010 28
4809 6011 6012 28
4810 6011 6013 28
4811 6011 6014 28
4812 6011 6015 28
4813 6016 6017 28
4814 6016 6018 28
4815 6016 6019 28
4816 6016 6020 28
4817 6021 6022 28
4818 6021 6023 28
4819 6021 6024 28
4820 6021 6025 28
4821 6026 6027 28
4822 6026 6028 28
4823 6026 6029 28
4824 6026 6030 28
4825 6031 6032 28
4826 6031 6033 28
4827 6031 6034 28
4828 6031 6035 28
4829 6036 6037 28
4830 6036 6038 28
4831 6036 6039 28
4832 6036 6040 28
4833 6041 6042 28
4834 6041 6043 28
4835 6041 6044 28
4836 6041 6045 28
4837 6046 6047 28
4838 6046 6048 28
4839 6046 6049 28
4840 6046 6050 28
4841 6051 6052 28
4842 6051 6053 28
4843 6051 6054 28
4844 6051 6055 28
4845 6056 6057 28
4846 6056 6058 28
4847 6056 6059 28
4848 6056 6060 28
4849 6061 6062 28
4850 6061 6063 28
4851 6061 6064 28
4852 6061 6065 28
4853 6066 6067 28
4854 6066 6068 28
4855 6066 6069 28
4856 6066 6070 28
4857 6071 6072 28
4858 6071 6073 28
4859 6071 6074 28
4860 6071 6075 28
4861 6076 6077 28
4862 6076 6078 28
4863 6076 6079 28
4864 6076 6080 28
4865 6081 6082 28
4866 6081 6083 28
4867 6081 6084 28
4868 6081 6085 28
4869 6086 6087 28
4870 6086 6088 28
4871 6086 6089 28
4872 6086 6090 28
4873 6091 6092 28
4874 6091 6093 28
4875 6091 6094 28
4876 6091 6095 28
4877 6096 6097 28
4878 6096 6098 28
4879 6096 6099 28
4880 6096 6100 28
4881 6101 6102 28
4882 6101 6103 28
4883 6101 6104 28
4884 6101 6105 28
4885 6106 6107 28
4886 6106 6108 28
4887 6106 6109 28
4888 6106 6110 28
4889 6111 6112 28
4890 6111 6113 28
4891 6111 6114 28
4892 6111 6115 28
4893 6116 6117 28
4894 6116 6118 28
4895 6116 6119 28
4896 6116 6120 28
4897 6121 6122 28
4898 6121 6123 28
4899 6121 6124 28
4900 6121 6125 28
4901 6126 6127 28
4902 6126 6128 28
4903 6126 6129 28
4904 6126 6130 28
4905 6131 6132 28
4906 6131 6133 28
4907 6131 6134 28
4908 6131 6135 28
4909 6136 6137 28
4910 6136 6138 28
4911 6136 6139 28
4912 6136 6140 28
4913 6141 6142 28
4914 6141 6143 28
4915 6141 6144 28
4916 6141 6145 28
4917 6146 6147 28
4918 6146 6148 28
4919 6146 6149 28
4920 6146 6150 28
4921 6151 6152 28
4922 6151 6153 28
4923 6151 6154 28
4924 6151 6155 28
4925 6156 6157 28
4926 6156 6158 28
4927 6156 6159 28
4928 6156 6160 28
4929 6161 6162 28
4930 6161 6163 28
4931 6161 6164 28
4932 6161 6165 28
4933 6166 6167 28
4934 6166 6168 28
4935 6166 6169 28
4936 6166 6170 28
4937 6171 6172 28
4938 6171 6173 28
4939 6171 6174 28
4940 6171 6175 28
4941 6176 6177 28
4942 6176 6178 28
4943 6176 6179 28
4944 6176 6180 28
4945 6181 6182 28
4946 6181 6183 28
4947 6181 6184 28
4948 6181 6185 28
4949 6186 6187 28
4950 6186 6188 28
4951 6186 6189 28
4952 6186 6190 28
4953 6191 6192 28
4954 6191 6193 28
4955 6191 6194 28
4956 6191 6195 28
4957 6196 6197 28
4958 6196 6198 28
4959 6196 6199 28
4960 6196 6200 28
4961 6201 6202 28
4962 6201 6203 28
4963 6201 6204 28
4964 6201 6205 28
4965 6206 6207 28
4966 6206 6208 28
4967 6206 6209 28
4968 6206 6210 28
4969 6211 6212 28
4970 6211 6213 28
4971 6211 6214 28
4972 6211 6215 28
4973 6216 6217 28
4974 6216 6218 28
4975 6216 6219 28
4976 6216 6220 28
4977 6221 6222 28
4978 6221 6223 28
4979 6221 6224 28
4980 6221 6225 28
4981 6226 6227 28
4982 6226 6228 28
4983 6226 6229 28
4984 6226 6230 28
4985 6231 6232 28
4986 6231 6233 28
4987 6231 6234 28
4988 6231 6235 28
4989 6236 6237 28
4990 6236 6238 28
4991 6236 6239 28
4992 6236 6240 28
4993 6241 6242 28
4994 6241 6243 28
4995 6241 6244 28
4996 6241 6245 28
4997 6246 6247 28
4998 6246 6248 28
4999 6246 6249 28
5000 6246 6250 28
5001 6251 6252 28
5002 6251 6253 28
5003 6251 6254 28
5004 6251 6255 28
5005 6256 6257 28
5006 6256 6258 28
5007 6256 6259 28
5008 6256 6260 28
5009 6261 6262 28
5010 6261 6263 28
5011 6261 6264 28
5012 6261 6265 28
5013 6266 6267 28
5014 6266 6268 28
5015 6266 6269 28
5016 6266 6270 28
5017 6271 6272 28
5018 6271 6273 28
5019 6271 6274 28
5020 6271 6275 28
5021 6276 6277 28
5022 6276 6278 28
5023 6276 6279 28
5024 6276 6280 28
5025 6281 6282 28
5026 6281 6283 28
5027 6281 6284 28
5028 6281 6285 28
5029 6286 6287 28
5030 6286 6288 28
5031 6286 6289 28
5032 6286 6290 28
5033 6291 6292 28
5034 6291 6293 28
5035 6291 6294 28
5036 6291 6295 28
5037 6296 6297 28
5038 6296 6298 28
5039 6296 6299 28
5040 6296 6300 28
5041 6301 6302 28
5042 6301 6303 28
5043 6301 6304 28
5044 6301 6305 28
5045 6306 6307 28
5046 6306 6308 28
5047 6306 6309 28
5048 6306 6310 28
5049 6311 6312 28
5050 6311 6313 28
5051 6311 6314 28
5052 6311 6315 28
5053 6316 6317 28
5054 6316 6318 28
5055 6316 6319 28
5056 6316 6320 28
5057 6321 6322 28
5058 6321 6323 28
5059 6321 6324 28
5060 6321 6325 28
5061 6326 6327 28
5062 6326 6328 28
5063 6326 6329 28
5064 6326 6330 28
5065 6331 6332 28
5066 6331 6333 28
5067 6331 6334 28
5068 6331 6335 28
5069 6336 6337 28
5070 6336 6338 28
5071 6336 6339 28
5072 6336 6340 28
5073 6341 6342 28
5074 6341 6343 28
5075 6341 6344 28
5076 6341 6345 28
5077 6346 6347 28
5078 6346 6348 28
5079 6346 6349 28
5080 6346 6350 28
5081 6351 6352 28
5082 6351 6353 28
5083 6351 6354 28
5084 6351 6355 28
5085 6356 6357 28
5086 6356 6358 28
5087 6356 6359 28
5088 6356 6360 28
5089 6361 6362 28
5090 6361 6363 28
5091 6361 6364 28
5092 6361 6365 28
5093 6366 6367 28
5094 6366 6368 28
5095 6366 6369 28
5096 6366 6370 28
5097 6371 6372 28
5098 6371 6373 28
5099 6371 6374 28
5100 6371 6375 28
5101 6376 6377 28
5102 6376 6378 28
5103 6376 6379 28
5104 6376 6380 28
5105 6381 6382 28
5106 6381 6383 28
5107 6381 6384 28
5108 6381 6385 28
5109 6386 6387 28
5110 6386 6388 28
5111 6386 6389 28
5112 6386 6390 28
5113 6391 6392 28
5114 6391 6393 28
5115 6391 6394 28
5116 6391 6395 28
5117 6396 6397 28
5118 6396 6398 28
5119 6396 6399 28
5120 6396 6400 28
5121 6401 6402 28
5122 6401 6403 28
5123 6401 6404 28
5124 6401 6405 28
5125 6406 6407 28
5126 6406 6408 28
5127 6406 6409 28
5128 6406 6410 28
5129 6411 6412 28
5130 6411 6413 28
5131 6411 6414 28
5132 6411 6415 28
5133 6416 6417 28
5134 6416 6418 28
5135 6416 6419 28
5136 6416 6420 28
5137 6421 6422 28
5138 6421 6423 28
5139 6421 6424 28
5140 6421 6425 28
5141 6426 6427 28
5142 6426 6428 28
5143 6426 6429 28
5144 6426 6430 28
5145 6431 6432 28
5146 6431 6433 28
5147 6431 6434 28
5148 6431 6435 28
5149 6436 6437 28
5150 6436 6438 28
5151 6436 6439 28
5152 6436 6440 28
5153 6441 6442 28
5154 6441 6443 28
5155 6441 6444 28
5156 6441 6445 28
5157 6446 6447 28
5158 6446 6448 28
5159 6446 6449 28
5160 6446 6450 28
5161 6451 6452 28
5162 6451 6453 28
5163 6451 6454 28
5164 6451 6455 28
5165 6456 6457 28
5166 6456 6458 28
5167 6456 6459 28
5168 6456 6460 28
5169 6461 6462 28
5170 6461 6463 28
5171 6461 6464 28
5172 6461 6465 28
5173 6466 6467 28
5174 6466 6468 28
5175 6466 6469 28
5176 6466 6470 28
5177 6471 6472 28
5178 6471 6473 28
5179 6471 6474 28
5180 6471 6475 28
5181 6476 6477 28
5182 6476 6478 28
5183 6476 6479 28
5184 6476 6480 28
5185 6481 6482 28
5186 6481 6483 28
5187 6481 6484 28
5188 6481 6485 28
5189 6486 6487 28
5190 6486 6488 28
5191 6486 6489 28
5192 6486 6490 28
5193 6491 6492 28
5194 6491 6493 28
5195 6491 6494 28
5196 6491 6495 28
5197 6496 6497 28
5198 6496 6498 28
5199 6496 6499 28
5200 6496 6500 28
5201 6501 6502 28
5202 6501 6503 28
5203 6501 6504 28
5204 6501 6505 28
5205 6506 6507 28
5206 6506 6508 28
5207 6506 6509 28
5208 6506 6510 28
5209 6511 6512 28
5210 6511 6513 28
5211 6511 6514 28
5212 6511 6515 28
5213 6516 6517 28
5214 6516 6518 28
5215 6516 6519 28
5216 6516 6520 28
5217 6521 6522 28
5218 6521 6523 28
5219 6521 6524 28
5220 6521 6525 28
5221 6526 6527 28
5222 6526 6528 28
5223 6526 6529 28
5224 6526 6530 28
5225 6531 6532 28
5226 6531 6533 28
5227 6531 6534 28
5228 6531 6535 28
5229 6536 6537 28
5230 6536 6538 28
5231 6536 6539 28
5232 6536 6540 28
5233 6541 6542 28
5234 6541 6543 28
5235 6541 6544 28
5236 6541 6545 28
5237 6546 6547 28
5238 6546 6548 28
5239 6546 6549 28
5240 6546 6550 28
5241 6551 6552 28
5242 6551 6553 28
5243 6551 6554 28
5244 6551 6555 28
5245 6556 6557 28
5246 6556 6558 28
5247 6556 6559 28
5248 6556 6560 28
5249 6561 6562 28
5250 6561 6563 28
5251 6561 6564 28
5252 6561 6565 28
5253 6566 6567 28
5254 6566 6568 28
5255 6566 6569 28
5256 6566 6570 28
5257 6571 6572 28
5258 6571 6573 28
5259 6571 6574 28
5260 6571 6575 28
5261 6576 6577 28
5262 6576 6578 28
5263 6576 6579 28
5264 6576 6580 28
5265 6581 6582 28
5266 6581 6583 28
5267 6581 6584 28
5268 6581 6585 28
5269 6586 6587 28
5270 6586 6588 28
5271 6586 6589 28
5272 6586 6590 28
5273 6591 6592 28
5274 6591 6593 28
5275 6591 6594 28
5276 6591 6595 28
5277 6596 6597 28
5278 6596 6598 28
5279 6596 6599 28
5280 6596 6600 28
5281 6601 6602 28
5282 6601 6603 28
5283 6601 6604 28
5284 6601 6605 28
5285 6606 6607 28
5286 6606 6608 28
5287 6606 6609 28
5288 6606 6610 28
5289 6611 6612 28
5290 6611 6613 28
5291 6611 6614 28
5292 6611 6615 28
5293 6616 6617 28
5294 6616 6618 28
5295 6616 6619 28
5296 6616 6620 28
5297 6621 6622 28
5298 6621 6623 28
5299 6621 6624 28
5300 6621 6625 28
5301 6626 6627 28
5302 6626 6628 28
5303 6626 6629 28
5304 6626 6630 28
5305 6631 6632 28
5306 6631 6633 28
5307 6631 6634 28
5308 6631 6635 28
5309 6636 6637 28
5310 6636 6638 28
5311 6636 6639 28
5312 6636 6640 28
5313 6641 6642 28
5314 6641 6643 28
5315 6641 6644 28
5316 6641 6645 28
5317 6646 6647 28
5318 6646 6648 28
5319 6646 6649 28
5320 6646 6650 28
5321 6651 6652 28
5322 6651 6653 28
5323 6651 6654 28
5324 6651 6655 28
5325 6656 6657 28
5326 6656 6658 28
5327 6656 6659 28
5328 6656 6660 28
5329 6661 6662 28
5330 6661 6663 28
5331 6661 6664 28
5332 6661 6665 28
5333 6666 6667 28
5334 6666 6668 28
5335 6666 6669 28
5336 6666 6670 28
5337 6671 6672 28
5338 6671 6673 28
5339 6671 6674 28
5340 6671 6675 28
5341 6676 6677 28
5342 6676 6678 28
5343 6676 6679 28
5344 6676 6680 28
5345 6681 6682 28
5346 6681 6683 28
5347 6681 6684 28
5348 6681 6685 28
5349 6686 6687 28
5350 6686 6688 28
5351 6686 6689 28
5352 6686 6690 28
5353 6691 6692 28
5354 6691 6693 28
5355 6691 6694 28
5356 6691 6695 28
5357 6696 6697 28
5358 6696 6698 28
5359 6696 6699 28
5360 6696 6700 28
5361 6701 6702 28
5362 6701 6703 28
5363 6701 6704 28
5364 6701 6705 28
5365 6706 6707 28
5366 6706 6708 28
5367 6706 6709 28
5368 6706 6710 28
5369 6711 6712 28
5370 6711 6713 28
5371 6711 6714 28
5372 6711 6715 28
5373 6716 6717 28
5374 6716 6718 28
5375 6716 6719 28
5376 6716 6720 28
5377 6721 6722 28
5378 6721 6723 28
5379 6721 6724 28
5380 6721 6725 28
5381 6726 6727 28
5382 6726 6728 28
5383 6726 6729 28
5384 6726 6730 28
5385 6731 6732 28
5386 6731 6733 28
5387 6731 6734 28
5388 6731 6735 28
5389 6736 6737 28
5390 6736 6738 28
5391 6736 6739 28
5392 6736 6740 28
5393 6741 6742 28
5394 6741 6743 28
5395 6741 6744 28
5396 6741 6745 28
5397 6746 6747 28
5398 6746 6748 28
5399 6746 6749 28
5400 6746 6750 28
5401 6751 6752 28
5402 6751 6753 28
5403 6751 6754 28
5404 6751 6755 28
5405 6756 6757 28
5406 6756 6758 28
5407 6756 6759 28
5408 6756 6760 28
5409 6761 6762 28
5410 6761 6763 28
5411 6761 6764 28
5412 6761 6765 28
5413 6766 6767 28
5414 6766 6768 28
5415 6766 6769 28
5416 6766 6770 28
5417 6771 6772 28
5418 6771 6773 28
5419 6771 6774 28
5420 6771 6775 28
5421 6776 6777 28
5422 6776 6778 28
5423 6776 6779 28
5424 6776 6780 28
5425 6781 6782 28
5426 6781 6783 28
5427 6781 6784 28
5428 6781 6785 28
5429 6786 6787 28
5430 6786 6788 28
5431 6786 6789 28
5432 6786 6790 28
5433 6791 6792 28
5434 6791 6793 28
5435 6791 6794 28
5436 6791 6795 28
5437 6796 6797 28
5438 6796 6798 28
5439 6796 6799 28
5440 6796 6800 28
5441 6801 6802 28
5442 6801 6803 28
5443 6801 6804 28
5444 6801 6805 28
5445 6806 6807 28
5446 6806 6808 28
5447 6806 6809 28
5448 6806 6810 28
5449 6811 6812 28
5450 6811 6813 28
5451 6811 6814 28
5452 6811 6815 28
5453 6816 6817 28
5454 6816 6818 28
5455 6816 6819 28
5456 6816 6820 28
5457 6821 6822 28
5458 6821 6823 28
5459 6821 6824 28
5460 6821 6825 28
5461 6826 6827 28
5462 6826 6828 28
5463 6826 6829 28
5464 6826 6830 28
5465 6831 6832 28
5466 6831 6833 28
5467 6831 6834 28
5468 6831 6835 28
5469 6836 6837 28
5470 6836 6838 28
5471 6836 6839 28
5472 6836 6840 28
5473 6841 6842 28
5474 6841 6843 28
5475 6841 6844 28
5476 6841 6845 28
5477 6846 6847 28
5478 6846 6848 28
5479 6846 6849 28
5480 6846 6850 28
5481 6851 6852 28
5482 6851 6853 28
5483 6851 6854 28
5484 6851 6855 28
5485 6856 6857 28
5486 6856 6858 28
5487 6856 6859 28
5488 6856 6860 28
5489 6861 6862 28
5490 6861 6863 28
5491 6861 6864 28
5492 6861 6865 28
5493 6866 6867 28
5494 6866 6868 28
5495 6866 6869 28
5496 6866 6870 28
5497 6871 6872 28
5498 6871 6873 28
5499 6871 6874 28
5500 6871 6875 28
5501 6876 6877 28
5502 6876 6878 28
5503 6876 6879 28
5504 6876 6880 28
5505 6881 6882 28
5506 6881 6883 28
5507 6881 6884 28
5508 6881 6885 28
5509 6886 6887 28
5510 6886 6888 28
5511 6886 6889 28
5512 6886 6890 28
5513 6891 6892 28
5514 6891 6893 28
5515 6891 6894 28
5516 6891 6895 28
5517 6896 6897 28
5518 6896 6898 28
5519 6896 6899 28
5520 6896 6900 28
5521 6901 6902 28
5522 6901 6903 28
5523 6901 6904 28
5524 6901 6905 28
5525 6906 6907 28
5526 6906 6908 28
5527 6906 6909 28
5528 6906 6910 28
5529 6911 6912 28
5530 6911 6913 28
5531 6911 6914 28
5532 6911 6915 28
5533 6916 6917 28
5534 6916 6918 28
5535 6916 6919 28
5536 6916 6920 28
5537 6921 6922 28
5538 6921 6923 28
5539 6921 6924 28
5540 6921 6925 28
5541 6926 6927 28
5542 6926 6928 28
5543 6926 6929 28
5544 6926 6930 28
5545 6931 6932 28
5546 6931 6933 28
5547 6931 6934 28
5548 6931 6935 28
5549 6936 6937 28
5550 6936 6938 28
5551 6936 6939 28
5552 6936 6940 28
5553 6941 6942 28
5554 6941 6943 28
5555 6941 6944 28
5556 6941 6945 28
5557 6946 6947 28
5558 6946 6948 28
5559 6946 6949 28
5560 6946 6950 28
5561 6951 6952 28
5562 6951 6953 28
5563 6951 6954 28
5564 6951 6955 28
5565 6956 6957 28
5566 6956 6958 28
5567 6956 6959 28
5568 6956 6960 28
5569 6961 6962 28
5570 6961 6963 28
5571 6961 6964 28
5572 6961 6965 28
5573 6966 6967 28
5574 6966 6968 28
5575 6966 6969 28
5576 6966 6970 28
5577 6971 6972 28
5578 6971 6973 28
5579 6971 6974 28
5580 6971 6975 28
5581 6976 6977 28
5582 6976 6978 28
5583 6976 6979 28
5584 6976 6980 28
5585 6981 6982 28
5586 6981 6983 28
5587 6981 6984 28
5588 6981 6985 28
5589 6986 6987 28
5590 6986 6988 28
5591 6986 6989 28
5592 6986 6990 28
5593 6991 6992 28
5594 6991 6993 28
5595 6991 6994 28
5596 6991 6995 28
5597 6996 6997 28
5598 6996 6998 28
5599 6996 6999 28
5600 6996 7000 28
5601 7001 7002 28
5602 7001 7003 28
5603 7001 7004 28
5604 7001 7005 28
5605 7006 7007 28
5606 7006 7008 28
5607 7006 7009 28
5608 7006 7010 28
5609 7011 7012 28
5610 7011 7013 28
5611 7011 7014 28
5612 7011 7015 28
5613 7016 7017 28
5614 7016 7018 28
5615 7016 7019 28
5616 7016 7020 28
5617 7021 7022 28
5618 7021 7023 28
5619 7021 7024 28
5620 7021 7025 28
5621 7026 7027 28
5622 7026 7028 28
5623 7026 7029 28
5624 7026 7030 28
5625 7031 7032 28
5626 7031 7033 28
5627 7031 7034 28
5628 7031 7035 28
5629 7036 7037 28
5630 7036 7038 28
5631 7036 7039 28
5632 7036 7040 28
5633 7041 7042 28
5634 7041 7043 28
5635 7041 7044 28
5636 7041 7045 28
5637 7046 7047 28
5638 7046 7048 28
5639 7046 7049 28
5640 7046 7050 28
5641 7051 7052 28
5642 7051 7053 28
5643 7051 7054 28
5644 7051 7055 28
5645 7056 7057 28
5646 7056 7058 28
5647 7056 7059 28
5648 7056 7060 28
5649 7061 7062 28
5650 7061 7063 28
5651 7061 7064 28
5652 7061 7065 28
5653 7066 7067 28
5654 7066 7068 28
5655 7066 7069 28
5656 7066 7070 28
5657 7071 7072 28
5658 7071 7073 28
5659 7071 7074 28
5660 7071 7075 28
5661 7076 7077 28
5662 7076 7078 28
5663 7076 7079 28
5664 7076 7080 28
5665 7081 7082 28
5666 7081 7083 28
5667 7081 7084 28
5668 7081 7085 28
5669 7086 7087 28
5670 7086 7088 28
5671 7086 7089 28
5672 7086 7090 28
5673 7091 7092 28
5674 7091 7093 28
5675 7091 7094 28
5676 7091 7095 28
5677 7096 7097 28
5678 7096 7098 28
5679 7096 7099 28
5680 7096 7100 28
5681 7101 7102 28
5682 7101 7103 28
5683 7101 7104 28
5684 7101 7105 28
5685 7106 7107 28
5686 7106 7108 28
5687 7106 7109 28
5688 7106 7110 28
5689 7111 7112 28
5690 7111 7113 28
5691 7111 7114 28
5692 7111 7115 28
5693 7116 7117 28
5694 7116 7118 28
5695 7116 7119 28
5696 7116 7120 28
5697 7121 7122 28
5698 7121 7123 28
5699 7121 7124 28
5700 7121 7125 28
5701 7126 7127 28
5702 7126 7128 28
5703 7126 7129 28
5704 7126 7130 28
5705 7131 7132 28
5706 7131 7133 28
5707 7131 7134 28
5708 7131 7135 28
5709 7136 7137 28
5710 7136 7138 28
5711 7136 7139 28
5712 7136 7140 28
5713 7141 7142 28
5714 7141 7143 28
5715 7141 7144 28
5716 7141 7145 28
5717 7146 7147 28
5718 7146 7148 28
5719 7146 7149 28
5720 7146 7150 28
5721 7151 7152 28
5722 7151 7153 28
5723 7151 7154 28
5724 7151 7155 28
5725 7156 7157 28
5726 7156 7158 28
5727 7156 7159 28
5728 7156 7160 28
5729 7161 7162 28
5730 7161 7163 28
5731 7161 7164 28
5732 7161 7165 28
5733 7166 7167 28
5734 7166 7168 28
5735 7166 7169 28
5736 7166 7170 28
5737 7171 7172 28
5738 7171 7173 28
5739 7171 7174 28
5740 7171 7175 28
5741 7176 7177 28
5742 7176 7178 28
5743 7176 7179 28
5744 7176 7180 28
5745 7181 7182 28
5746 7181 7183 28
5747 7181 7184 28
5748 7181 7185 28
5749 7186 7187 28
5750 7186 7188 28
5751 7186 7189 28
5752 7186 7190 28
5753 7191 7192 28
5754 7191 7193 28
5755 7191 7194 28
5756 7191 7195 28
5757 7196 7197 28
5758 7196 7198 28
5759 7196 7199 28
5760 7196 7200 28
5761 7201 7202 28
5762 7201 7203 28
5763 7201 7204 28
5764 7201 7205 28
5765 7206 7207 28
5766 7206 7208 28
5767 7206 7209 28
5768 7206 7210 28
5769 7211 7212 28
5770 7211 7213 28
5771 7211 7214 28
5772 7211 7215 28
5773 7216 7217 28
5774 7216 7218 28
5775 7216 7219 28
5776 7216 7220 28
5777 7221 7222 28
5778 7221 7223 28
5779 7221 7224 28
5780 7221 7225 28
5781 7226 7227 28
5782 7226 7228 28
5783 7226 7229 28
5784 7226 7230 28
5785 7231 7232 28
5786 7231 7233 28
5787 7231 7234 28
5788 7231 7235 28
5789 7236 7237 28
5790 7236 7238 28
5791 7236 7239 28
5792 7236 7240 28
5793 7241 7242 28
5794 7241 7243 28
5795 7241 7244 28
5796 7241 7245 28
5797 7246 7247 28
5798 7246 7248 28
5799 7246 7249 28
5800 7246 7250 28
5801 7251 7252 28
5802 7251 7253 28
5803 7251 7254 28
5804 7251 7255 28
5805 7256 7257 28
5806 7256 7258 28
5807 7256 7259 28
5808 7256 7260 28
5809 7261 7262 28
5810 7261 7263 28
5811 7261 7264 28
5812 7261 7265 28
5813 7266 7267 28
5814 7266 7268 28
5815 7266 7269 28
5816 7266 7270 28
5817 7271 7272 28
5818 7271 7273 28
5819 7271 7274 28
5820 7271 7275 28
5821 7276 7277 28
5822 7276 7278 28
5823 7276 7279 28
5824 7276 7280 28
5825 7281 7282 28
5826 7281 7283 28
5827 7281 7284 28
5828 7281 7285 28
5829 7286 7287 28
5830 7286 7288 28
5831 7286 7289 28
5832 7286 7290 28
5833 7291 7292 28
5834 7291 7293 28
5835 7291 7294 28
5836 7291 7295 28
5837 7296 7297 28
5838 7296 7298 28
5839 7296 7299 28
5840 7296 7300 28
5841 7301 7302 28
5842 7301 7303 28
5843 7301 7304 28
5844 7301 7305 28
5845 7306 7307 28
5846 7306 7308 28
5847 7306 7309 28
5848 7306 7310 28
5849 7311 7312 28
5850 7311 7313 28
5851 7311 7314 28
5852 7311 7315 28
5853 7316 7317 28
5854 7316 7318 28
5855 7316 7319 28
5856 7316 7320 28
5857 7321 7322 28
5858 7321 7323 28
5859 7321 7324 28
5860 7321 7325 28
5861 7326 7327 28
5862 7326 7328 28
5863 7326 7329 28
5864 7326 7330 28
5865 7331 7332 28
5866 7331 7333 28
5867 7331 7334 28
5868 7331 7335 28
5869 7336 7337 28
5870 7336 7338 28
5871 7336 7339 28
5872 7336 7340 28
5873 7341 7342 28
5874 7341 7343 28
5875 7341 7344 28
5876 7341 7345 28
5877 7346 7347 28
5878 7346 7348 28
5879 7346 7349 28
5880 7346 7350 28
5881 7351 7352 28
5882 7351 7353 28
5883 7351 7354 28
5884 7351 7355 28
5885 7356 7357 28
5886 7356 7358 28
5887 7356 7359 28
5888 7356 7360 28
5889 7361 7362 28
5890 7361 7363 28
5891 7361 7364 28
5892 7361 7365 28
5893 7366 7367 28
5894 7366 7368 28
5895 7366 7369 28
5896 7366 7370 28
5897 7371 7372 28
5898 7371 7373 28
5899 7371 7374 28
5900 7371 7375 28
5901 7376 7377 28
5902 7376 7378 28
5903 7376 7379 28
5904 7376 7380 28
5905 7381 7382 28
5906 7381 7383 28
5907 7381 7384 28
5908 7381 7385 28
5909 7386 7387 28
5910 7386 7388 28
5911 7386 7389 28
5912 7386 7390 28
5913 7391 7392 28
5914 7391 7393 28
5915 7391 7394 28
5916 7391 7395 28
5917 7396 7397 28
5918 7396 7398 28
5919 7396 7399 28
5920 7396 7400 28
5921 7401 7402 28
5922 7401 7403 28
5923 7401 7404 28
5924 7401 7405 28
5925 7406 7407 28
5926 7406 7408 28
5927 7406 7409 28
5928 7406 7410 28
5929 7411 7412 28
5930 7411 7413 28
5931 7411 7414 28
5932 7411 7415 28
5933 7416 7417 28
5934 7416 7418 28
5935 7416 7419 28
5936 7416 7420 28
5937 7421 7422 28
5938 7421 7423 28
5939 7421 7424 28
5940 7421 7425 28
5941 7426 7427 28
5942 7426 7428 28
5943 7426 7429 28
5944 7426 7430 28
5945 7431 7432 28
5946 7431 7433 28
5947 7431 7434 28
5948 7431 7435 28
5949 7436 7437 28
5950 7436 7438 28
5951 7436 7439 28
5952 7436 7440 28
5953 7441 7442 28
5954 7441 7443 28
5955 7441 7444 28
5956 7441 7445 28
5957 7446 7447 28
5958 7446 7448 28
5959 7446 7449 28
5960 7446 7450 28
5961 7451 7452 28
5962 7451 7453 28
5963 7451 7454 28
5964 7451 7455 28
5965 7456 7457 28
5966 7456 7458 28
5967 7456 7459 28
5968 7456 7460 28
5969 7461 7462 28
5970 7461 7463 28
5971 7461 7464 28
5972 7461 7465 28
5973 7466 7467 28
5974 7466 7468 28
5975 7466 7469 28
5976 7466 7470 28
5977 7471 7472 28
5978 7471 7473 28
5979 7471 7474 28
5980 7471 7475 28
5981 7476 7477 28
5982 7476 7478 28
5983 7476 7479 28
5984 7476 7480 28
5985 7481 7482 28
5986 7481 7483 28
5987 7481 7484 28
5988 7481 7485 28
5989 7486 7487 28
5990 7486 7488 28
5991 7486 7489 28
5992 7486 7490 28
5993 7491 7492 28
5994 7491 7493 28
5995 7491 7494 28
5996 7491 7495 28
5997 7496 7497 28
5998 7496 7498 28
5999 7496 7499 28
6000 7496 7500 28
6001 7501 7502 28
6002 7501 7503 28
6003 7501 7504 28
6004 7501 7505 28
6005 7506 7507 28
6006 7506 7508 28
6007 7506 7509 28
6008 7506 7510 28
6009 7511 7512 28
6010 7511 7513 28
6011 7511 7514 28
6012 7511 7515 28
6013 7516 7517 28
6014 7516 7518 28
6015 7516 7519 28
6016 7516 7520 28
6017 7521 7522 28
6018 7521 7523 28
6019 7521 7524 28
6020 7521 7525 28
6021 7526 7527 28
6022 7526 7528 28
6023 7526 7529 28
6024 7526 7530 28
6025 7531 7532 28
6026 7531 7533 28
6027 7531 7534 28
6028 7531 7535 28
6029 7536 7537 28
6030 7536 7538 28
6031 7536 7539 28
6032 7536 7540 28
6033 7541 7542 28
6034 7541 7543 28
6035 7541 7544 28
6036 7541 7545 28
6037 7546 7547 28
6038 7546 7548 28
6039 7546 7549 28
6040 7546 7550 28
6041 7551 7552 28
6042 7551 7553 28
6043 7551 7554 28
6044 7551 7555 28
6045 7556 7557 28
6046 7556 7558 28
6047 7556 7559 28
6048 7556 7560 28
6049 7561 7562 28
6050 7561 7563 28
6051 7561 7564 28
6052 7561 7565 28
6053 7566 7567 28
6054 7566 7568 28
6055 7566 7569 28
6056 7566 7570 28
6057 7571 7572 28
6058 7571 7573 28
6059 7571 7574 28
6060 7571 7575 28
6061 7576 7577 28
6062 7576 7578 28
6063 7576 7579 28
6064 7576 7580 28
6065 7581 7582 28
6066 7581 7583 28
6067 7581 7584 28
6068 7581 7585 28
6069 7586 7587 28
6070 7586 7588 28
6071 7586 7589 28
6072 7586 7590 28
6073 7591 7592 28
6074 7591 7593 28
6075 7591 7594 28
6076 7591 7595 28
6077 7596 7597 28
6078 7596 7598 28
6079 7596 7599 28
6080 7596 7600 28
6081 7601 7602 28
6082 7601 7603 28
6083 7601 7604 28
6084 7601 7605 28
6085 7606 7607 28
6086 7606 7608 28
6087 7606 7609 28
6088 7606 7610 28
6089 7611 7612 28
6090 7611 7613 28
6091 7611 7614 28
6092 7611 7615 28
6093 7616 7617 28
6094 7616 7618 28
6095 7616 7619 28
6096 7616 7620 28
6097 7621 7622 28
6098 7621 7623 28
6099 7621 7624 28
6100 7621 7625 28
6101 7626 7627 28
6102 7626 7628 28
6103 7626 7629 28
6104 7626 7630 28
6105 7631 7632 28
6106 7631 7633 28
6107 7631 7634 28
6108 7631 7635 28
6109 7636 7637 28
6110 7636 7638 28
6111 7636 7639 28
6112 7636 7640 28
6113 7641 7642 28
6114 7641 7643 28
6115 7641 7644 28
6116 7641 7645 28
6117 7646 7647 28
6118 7646 7648 28
6119 7646 7649 28
6120 7646 7650 28
6121 7651 7652 28
6122 7651 7653 28
6123 7651 7654 28
6124 7651 7655 28
6125 7656 7657 28
6126 7656 7658 28
6127 7656 7659 28
6128 7656 7660 28
6129 7661 7662 28
6130 7661 7663 28
6131 7661 7664 28
6132 7661 7665 28
6133 7666 7667 28
6134 7666 7668 28
6135 7666 7669 28
6136 7666 7670 28
6137 7671 7672 28
6138 7671 7673 28
6139 7671 7674 28
6140 7671 7675 28
6141 7676 7677 28
6142 7676 7678 28
6143 7676 7679 28
6144 7676 7680 28
6145 7681 7682 28
6146 7681 7683 28
6147 7681 7684 28
6148 7681 7685 28
6149 7686 7687 28
6150 7686 7688 28
6151 7686 7689 28
6152 7686 7690 28
6153 7691 7692 28
6154 7691 7693 28
6155 7691 7694 28
6156 7691 7695 28
6157 7696 7697 28
6158 7696 7698 28
6159 7696 7699 28
6160 7696 7700 28
6161 7701 7702 28
6162 7701 7703 28
6163 7701 7704 28
6164 7701 7705 28
6165 7706 7707 28
6166 7706 7708 28
6167 7706 7709 28
6168 7706 7710 28
6169 7711 7712 28
6170 7711 7713 28
6171 7711 7714 28
6172 7711 7715 28
6173 7716 7717 28
6174 7716 7718 28
6175 7716 7719 28
6176 7716 7720 28
6177 7721 7722 28
6178 7721 7723 28
6179 7721 7724 28
6180 7721 7725 28
6181 7726 7727 28
6182 7726 7728 28
6183 7726 7729 28
6184 7726 7730 28
6185 7731 7732 28
6186 7731 7733 28
6187 7731 7734 28
6188 7731 7735 28
6189 7736 7737 28
6190 7736 7738 28
6191 7736 7739 28
6192 7736 7740 28
6193 7741 7742 28
6194 7741 7743 28
6195 7741 7744 28
6196 7741 7745 28
6197 7746 7747 28
6198 7746 7748 28
6199 7746 7749 28
6200 7746 7750 28
6201 7751 7752 28
6202 7751 7753 28
6203 7751 7754 28
6204 7751 7755 28
6205 7756 7757 28
6206 7756 7758 28
6207 7756 7759 28
6208 7756 7760 28
6209 7761 7762 28
6210 7761 7763 28
6211 7761 7764 28
6212 7761 7765 28
6213 7766 7767 28
6214 7766 7768 28
6215 7766 7769 28
6216 7766 7770 28
6217 7771 7772 28
6218 7771 7773 28
6219 7771 7774 28
6220 7771 7775 28
6221 7776 7777 28
6222 7776 7778 28
6223 7776 7779 28
6224 7776 7780 28
6225 7781 7782 28
6226 7781 7783 28
6227 7781 7784 28
6228 7781 7785 28
6229 7786 7787 28
6230 7786 7788 28
6231 7786 7789 28
6232 7786 7790 28
6233 7791 7792 28
6234 7791 7793 28
6235 7791 7794 28
6236 7791 7795 28
6237 7796 7797 28
6238 7796 7798 28
6239 7796 7799 28
6240 7796 7800 28
6241 7801 7802 28
6242 7801 7803 28
6243 7801 7804 28
6244 7801 7805 28
6245 7806 7807 28
6246 7806 7808 28
6247 7806 7809 28
6248 7806 7810 28
6249 7811 7812 28
6250 7811 7813 28
6251 7811 7814 28
6252 7811 7815 28
6253 7816 7817 28
6254 7816 7818 28
6255 7816 7819 28
6256 7816 7820 28
6257 7821 7822 28
6258 7821 7823 28
6259 7821 7824 28
6260 7821 7825 28
6261 7826 7827 28
6262 7826 7828 28
6263 7826 7829 28
6264 7826 7830 28
6265 7831 7832 28
6266 7831 7833 28
6267 7831 7834 28
6268 7831 7835 28
6269 7836 7837 28
6270 7836 7838 28
6271 7836 7839 28
6272 7836 7840 28
6273 7841 7842 28
6274 7841 7843 28
6275 7841 7844 28
6276 7841 7845 28
6277 7846 7847 28
6278 7846 7848 28
6279 7846 7849 28
6280 7846 7850 28
6281 7851 7852 28
6282 7851 7853 28
6283 7851 7854 28
6284 7851 7855 28
6285 7856 7857 28
6286 7856 7858 28
6287 7856 7859 28
6288 7856 7860 28
6289 7861 7862 28
6290 7861 7863 28
6291 7861 7864 28
6292 7861 7865 28
6293 7866 7867 28
6294 7866 7868 28
6295 7866 7869 28
6296 7866 7870 28
6297 7871 7872 28
6298 7871 7873 28
6299 7871 7874 28
6300 7871 7875 28
6301 7876 7877 28
6302 7876 7878 28
6303 7876 7879 28
6304 7876 7880 28
6305 7881 7882 28
6306 7881 7883 28
6307 7881 7884 28
6308 7881 7885 28
6309 7886 7887 28
6310 7886 7888 28
6311 7886 7889 28
6312 7886 7890 28
6313 7891 7892 28
6314 7891 7893 28
6315 7891 7894 28
6316 7891 7895 28
6317 7896 7897 28
6318 7896 7898 28
6319 7896 7899 28
6320 7896 7900 28
6321 7901 7902 28
6322 7901 7903 28
6323 7901 7904 28
6324 7901 7905 28
6325 7906 7907 28
6326 7906 7908 28
6327 7906 7909 28
6328 7906 7910 28
6329 7911 7912 28
6330 7911 7913 28
6331 7911 7914 28
6332 7911 7915 28
6333 7916 7917 28
6334 7916 7918 28
6335 7916 7919 28
6336 7916 7920 28
6337 7921 7922 28
6338 7921 7923 28
6339 7921 7924 28
6340 7921 7925 28
6341 7926 7927 28
6342 7926 7928 28
6343 7926 7929 28
6344 7926 7930 28
6345 7931 7932 28
6346 7931 7933 28
6347 7931 7934 28
6348 7931 7935 28
6349 7936 7937 28
6350 7936 7938 28
6351 7936 7939 28
6352 7936 7940 28
6353 7941 7942 28
6354 7941 7943 28
6355 7941 7944 28
6356 7941 7945 28
6357 7946 7947 28
6358 7946 7948 28
6359 7946 7949 28
6360 7946 7950 28
6361 7951 7952 28
6362 7951 7953 28
6363 7951 7954 28
6364 7951 7955 28
6365 7956 7957 28
6366 7956 7958 28
6367 7956 7959 28
6368 7956 7960 28
6369 7961 7962 28
6370 7961 7963 28
6371 7961 7964 28
6372 7961 7965 28
6373 7966 7967 28
6374 7966 7968 28
6375 7966 7969 28
6376 7966 7970 28
6377 7971 7972 28
6378 7971 7973 28
6379 7971 7974 28
6380 7971 7975 28
6381 7976 7977 28
6382 7976 7978 28
6383 7976 7979 28
6384 7976 7980 28
6385 7981 7982 28
6386 7981 7983 28
6387 7981 7984 28
6388 7981 7985 28
6389 7986 7987 28
6390 7986 7988 28
6391 7986 7989 28
6392 7986 7990 28
6393 7991 7992 28
6394 7991 7993 28
6395 7991 7994 28
6396 7991 7995 28
6397 7996 7997 28
6398 7996 7998 28
6399 7996 7999 28
6400 7996 8000 28
6401 8001 8002 28
6402 8001 8003 28
6403 8001 8004 28
6404 8001 8005 28
6405 8006 8007 28
6406 8006 8008 28
6407 8006 8009 28
6408 8006 8010 28
6409 8011 8012 28
6410 8011 8013 28
6411 8011 8014 28
6412 8011 8015 28
6413 8016 8017 28
6414 8016 8018 28
6415 8016 8019 28
6416 8016 8020 28
6417 8021 8022 28
6418 8021 8023 28
6419 8021 8024 28
6420 8021 8025 28
6421 8026 8027 28
6422 8026 8028 28
6423 8026 8029 28
6424 8026 8030 28
6425 8031 8032 28
6426 8031 8033 28
6427 8031 8034 28
6428 8031 8035 28
6429 8036 8037 28
6430 8036 8038 28
6431 8036 8039 28
6432 8036 8040 28
6433 8041 8042 28
6434 8041 8043 28
6435 8041 8044 28
6436 8041 8045 28
6437 8046 8047 28
6438 8046 8048 28
6439 8046 8049 28
6440 8046 8050 28
6441 8051 8052 28
6442 8051 8053 28
6443 8051 8054 28
6444 8051 8055 28
6445 8056 8057 28
6446 8056 8058 28
6447 8056 8059 28
6448 8056 8060 28
6449 8061 8062 28
6450 8061 8063 28
6451 8061 8064 28
6452 8061 8065 28
6453 8066 8067 28
6454 8066 8068 28
6455 8066 8069 28
6456 8066 8070 28
6457 8071 8072 28
6458 8071 8073 28
6459 8071 8074 28
6460 8071 8075 28
6461 8076 8077 28
6462 8076 8078 28
6463 8076 8079 28
6464 8076 8080 28
6465 8081 8082 28
6466 8081 8083 28
6467 8081 8084 28
6468 8081 8085 28
6469 8086 8087 28
6470 8086 8088 28
6471 8086 8089 28
6472 8086 8090 28
6473 8091 8092 28
6474 8091 8093 28
6475 8091 8094 28
6476 8091 8095 28
6477 8096 8097 28
6478 8096 8098 28
6479 8096 8099 28
6480 8096 8100 28
6481 8101 8102 28
6482 8101 8103 28
6483 8101 8104 28
6484 8101 8105 28
6485 8106 8107 28
6486 8106 8108 28
6487 8106 8109 28
6488 8106 8110 28
6489 8111 8112 28
6490 8111 8113 28
6491 8111 8114 28
6492 8111 8115 28
6493 8116 8117 28
6494 8116 8118 28
6495 8116 8119 28
6496 8116 8120 28
6497 8121 8122 28
6498 8121 8123 28
6499 8121 8124 28
6500 8121 8125 28
6501 8126 8127 28
6502 8126 8128 28
6503 8126 8129 28
6504 8126 8130 28
6505 8131 8132 28
6506 8131 8133 28
6507 8131 8134 28
6508 8131 8135 28
6509 8136 8137 28
6510 8136 8138 28
6511 8136 8139 28
6512 8136 8140 28
6513 8141 8142 28
6514 8141 8143 28
6515 8141 8144 28
6516 8141 8145 28
6517 8146 8147 28
6518 8146 8148 28
6519 8146 8149 28
6520 8146 8150 28
6521 8151 8152 28
6522 8151 8153 28
6523 8151 8154 28
6524 8151 8155 28
6525 8156 8157 28
6526 8156 8158 28
6527 8156 8159 28
6528 8156 8160 28
6529 8161 8162 28
6530 8161 8163 28
6531 8161 8164 28
6532 8161 8165 28
6533 8166 8167 28
6534 8166 8168 28
6535 8166 8169 28
6536 8166 8170 28
6537 8171 8172 28
6538 8171 8173 28
6539 8171 8174 28
6540 8171 8175 28
6541 8176 8177 28
6542 8176 8178 28
6543 8176 8179 28
6544 8176 8180 28
6545 8181 8182 28
6546 8181 8183 28
6547 8181 8184 28
6548 8181 8185 28
6549 8186 8187 28
6550 8186 8188 28
6551 8186 8189 28
6552 8186 8190 28
6553 8191 8192 28
6554 8191 8193 28
6555 8191 8194 28
6556 8191 8195 28
6557 8196 8197 28
6558 8196 8198 28
6559 8196 8199 28
6560 8196 8200 28
6561 8201 8202 28
6562 8201 8203 28
6563 8201 8204 28
6564 8201 8205 28
6565 8206 8207 28
6566 8206 8208 28
6567 8206 8209 28
6568 8206 8210 28
6569 8211 8212 28
6570 8211 8213 28
6571 8211 8214 28
6572 8211 8215 28
6573 8216 8217 28
6574 8216 8218 28
6575 8216 8219 28
6576 8216 8220 28
6577 8221 8222 28
6578 8221 8223 28
6579 8221 8224 28
6580 8221 8225 28
6581 8226 8227 28
6582 8226 8228 28
6583 8226 8229 28
6584 8226 8230 28
6585 8231 8232 28
6586 8231 8233 28
6587 8231 8234 28
6588 8231 8235 28
6589 8236 8237 28
6590 8236 8238 28
6591 8236 8239 28
6592 8236 8240 28
6593 8241 8242 28
6594 8241 8243 28
6595 8241 8244 28
6596 8241 8245 28
6597 8246 8247 28
6598 8246 8248 28
6599 8246 8249 28
6600 8246 8250 28
6601 8251 8252 28
6602 8251 8253 28
6603 8251 8254 28
6604 8251 8255 28
6605 8256 8257 28
6606 8256 8258 28
6607 8256 8259 28
6608 8256 8260 28
6609 8261 8262 28
6610 8261 8263 28
6611 8261 8264 28
6612 8261 8265 28
6613 8266 8267 28
6614 8266 8268 28
6615 8266 8269 28
6616 8266 8270 28
6617 8271 8272 28
6618 8271 8273 28
6619 8271 8274 28
6620 8271 8275 28
6621 8276 8277 28
6622 8276 8278 28
6623 8276 8279 28
6624 8276 8280 28
6625 8281 8282 28
6626 8281 8283 28
6627 8281 8284 28
6628 8281 8285 28
6629 8286 8287 28
6630 8286 8288 28
6631 8286 8289 28
6632 8286 8290 28
6633 8291 8292 28
6634 8291 8293 28
6635 8291 8294 28
6636 8291 8295 28
6637 8296 8297 28
6638 8296 8298 28
6639 8296 8299 28
6640 8296 8300 28
6641 8301 8302 28
6642 8301 8303 28
6643 8301 8304 28
6644 8301 8305 28
6645 8306 8307 28
6646 8306 8308 28
6647 8306 8309 28
6648 8306 8310 28
6649 8311 8312 28
6650 8311 8313 28
6651 8311 8314 28
6652 8311 8315 28
6653 8316 8317 28
6654 8316 8318 28
6655 8316 8319 28
6656 8316 8320 28
6657 8321 8322 28
6658 8321 8323 28
6659 8321 8324 28
6660 8321 8325 28
6661 8326 8327 28
6662 8326 8328 28
6663 8326 8329 28
6664 8326 8330 28
6665 8331 8332 28
6666 8331 8333 28
6667 8331 8334 28
6668 8331 8335 28
6669 8336 8337 28
6670 8336 8338 28
6671 8336 8339 28
6672 8336 8340 28
6673 8341 8342 28
6674 8341 8343 28
6675 8341 8344 28
6676 8341 8345 28
6677 8346 8347 28
6678 8346 8348 28
6679 8346 8349 28
6680 8346 8350 28
6681 8351 8352 28
6682 8351 8353 28
6683 8351 8354 28
6684 8351 8355 28
6685 8356 8357 28
6686 8356 8358 28
6687 8356 8359 28
6688 8356 8360 28
6689 8361 8362 28
6690 8361 8363 28
6691 8361 8364 28
6692 8361 8365 28
6693 8366 8367 28
6694 8366 8368 28
6695 8366 8369 28
6696 8366 8370 28
6697 8371 8372 28
6698 8371 8373 28
6699 8371 8374 28
6700 8371 8375 28
6701 8376 8377 28
6702 8376 8378 28
6703 8376 8379 28
6704 8376 8380 28
6705 8381 8382 28
6706 8381 8383 28
6707 8381 8384 28
6708 8381 8385 28
6709 8386 8387 28
6710 8386 8388 28
6711 8386 8389 28
6712 8386 8390 28
6713 8391 8392 28
6714 8391 8393 28
6715 8391 8394 28
6716 8391 8395 28
6717 8396 8397 28
6718 8396 8398 28
6719 8396 8399 28
6720 8396 8400 28
6721 8401 8402 28
6722 8401 8403 28
6723 8401 8404 28
6724 8401 8405 28
6725 8406 8407 28
6726 8406 8408 28
6727 8406 8409 28
6728 8406 8410 28
6729 8411 8412 28
6730 8411 8413 28
6731 8411 8414 28
6732 8411 8415 28
6733 8416 8417 28
6734 8416 8418 28
6735 8416 8419 28
6736 8416 8420 28
6737 8421 8422 28
6738 8421 8423 28
6739 8421 8424 28
6740 8421 8425 28
6741 8426 8427 28
6742 8426 8428 28
6743 8426 8429 28
6744 8426 8430 28
6745 8431 8432 28
6746 8431 8433 28
6747 8431 8434 28
6748 8431 8435 28
6749 8436 8437 28
6750 8436 8438 28
6751 8436 8439 28
6752 8436 8440 28
6753 8441 8442 28
6754 8441 8443 28
6755 8441 8444 28
6756 8441 8445 28
6757 8446 8447 28
6758 8446 8448 28
6759 8446 8449 28
6760 8446 8450 28
6761 8451 8452 28
6762 8451 8453 28
6763 8451 8454 28
6764 8451 8455 28
6765 8456 8457 28
6766 8456 8458 28
6767 8456 8459 28
6768 8456 8460 28
6769 8461 8462 28
6770 8461 8463 28
6771 8461 8464 28
6772 8461 8465 28
6773 8466 8467 28
6774 8466 8468 28
6775 8466 8469 28
6776 8466 8470 28
6777 8471 8472 28
6778 8471 8473 28
6779 8471 8474 28
6780 8471 8475 28
6781 8476 8477 28
6782 8476 8478 28
6783 8476 8479 28
6784 8476 8480 28
6785 8481 8482 28
6786 8481 8483 28
6787 8481 8484 28
6788 8481 8485 28
6789 8486 8487 28
6790 8486 8488 28
6791 8486 8489 28
6792 8486 8490 28
6793 8491 8492 28
6794 8491 8493 28
6795 8491 8494 28
6796 8491 8495 28
6797 8496 8497 28
6798 8496 8498 28
6799 8496 8499 28
6800 8496 8500 28
6801 8501 8502 28
6802 8501 8503 28
6803 8501 8504 28
6804 8501 8505 28
6805 8506 8507 28
6806 8506 8508 28
6807 8506 8509 28
6808 8506 8510 28
6809 8511 8512 28
6810 8511 8513 28
6811 8511 8514 28
6812 8511 8515 28
6813 8516 8517 28
6814 8516 8518 28
6815 8516 8519 28
6816 8516 8520 28
6817 8521 8522 28
6818 8521 8523 28
6819 8521 8524 28
6820 8521 8525 28
6821 8526 8527 28
6822 8526 8528 28
6823 8526 8529 28
6824 8526 8530 28
6825 8531 8532 28
6826 8531 8533 28
6827 8531 8534 28
6828 8531 8535 28
6829 8536 8537 28
6830 8536 8538 28
6831 8536 8539 28
6832 8536 8540 28
6833 8541 8542 28
6834 8541 8543 28
6835 8541 8544 28
6836 8541 8545 28
6837 8546 8547 28
6838 8546 8548 28
6839 8546 8549 28
6840 8546 8550 28
6841 8551 8552 28
6842 8551 8553 28
6843 8551 8554 28
6844 8551 8555 28
6845 8556 8557 28
6846 8556 8558 28
6847 8556 8559 28
6848 8556 8560 28
6849 8561 8562 28
6850 8561 8563 28
6851 8561 8564 28
6852 8561 8565 28
6853 8566 8567 28
6854 8566 8568 28
6855 8566 8569 28
6856 8566 8570 28
6857 8571 8572 28
6858 8571 8573 28
6859 8571 8574 28
6860 8571 8575 28
6861 8576 8577 28
6862 8576 8578 28
6863 8576 8579 28
6864 8576 8580 28
6865 8581 8582 28
6866 8581 8583 28
6867 8581 8584 28
6868 8581 8585 28
6869 8586 8587 28
6870 8586 8588 28
6871 8586 8589 28
6872 8586 8590 28
6873 8591 8592 28
6874 8591 8593 28
6875 8591 8594 28
6876 8591 8595 28
6877 8596 8597 28
6878 8596 8598 28
6879 8596 8599 28
6880 8596 8600 28
6881 8601 8602 28
6882 8601 8603 28
6883 8601 8604 28
6884 8601 8605 28
6885 8606 8607 28
6886 8606 8608 28
6887 8606 8609 28
6888 8606 8610 28
6889 8611 8612 28
6890 8611 8613 28
6891 8611 8614 28
6892 8611 8615 28
6893 8616 8617 28
6894 8616 8618 28
6895 8616 8619 28
6896 8616 8620 28
6897 8621 8622 28
6898 8621 8623 28
6899 8621 8624 28
6900 8621 8625 28
6901 8626 8627 28
6902 8626 8628 28
6903 8626 8629 28
6904 8626 8630 28
6905 8631 8632 28
6906 8631 8633 28
6907 8631 8634 28
6908 8631 8635 28
6909 8636 8637 28
6910 8636 8638 28
6911 8636 8639 28
6912 8636 8640 28
6913 8641 8642 28
6914 8641 8643 28
6915 8641 8644 28
6916 8641 8645 28
6917 8646 8647 28
6918 8646 8648 28
6919 8646 8649 28
6920 8646 8650 28
6921 8651 8652 28
6922 8651 8653 28
6923 8651 8654 28
6924 8651 8655 28
6925 8656 8657 28
6926 8656 8658 28
6927 8656 8659 28
6928 8656 8660 28
6929 8661 8662 28
6930 8661 8663 28
6931 8661 8664 28
6932 8661 8665 28
6933 8666 8667 28
6934 8666 8668 28
6935 8666 8669 28
6936 8666 8670 28
6937 8671 8672 28
6938 8671 8673 28
6939 8671 8674 28
6940 8671 8675 28
6941 8676 8677 28
6942 8676 8678 28
6943 8676 8679 28
6944 8676 8680 28
6945 8681 8682 28
6946 8681 8683 28
6947 8681 8684 28
6948 8681 8685 28
6949 8686 8687 28
6950 8686 8688 28
6951 8686 8689 28
6952 8686 8690 28
6953 8691 8692 28
6954 8691 8693 28
6955 8691 8694 28
6956 8691 8695 28
6957 8696 8697 28
6958 8696 8698 28
6959 8696 8699 28
6960 8696 8700 28
6961 8701 8702 28
6962 8701 8703 28
6963 8701 8704 28
6964 8701 8705 28
6965 8706 8707 28
6966 8706 8708 28
6967 8706 8709 28
6968 8706 8710 28
6969 8711 8712 28
6970 8711 8713 28
6971 8711 8714 28
6972 8711 8715 28
6973 8716 8717 28
6974 8716 8718 28
6975 8716 8719 28
6976 8716 8720 28
6977 8721 8722 28
6978 8721 8723 28
6979 8721 8724 28
6980 8721 8725 28
6981 8726 8727 28
6982 8726 8728 28
6983 8726 8729 28
6984 8726 8730 28
6985 8731 8732 28
6986 8731 8733 28
6987 8731 8734 28
6988 8731 8735 28
6989 8736 8737 28
6990 8736 8738 28
6991 8736 8739 28
6992 8736 8740 28
6993 8741 8742 28
6994 8741 8743 28
6995 8741 8744 28
6996 8741 8745 28
6997 8746 8747 28
6998 8746 8748 28
6999 8746 8749 28
7000 8746 8750 28
7001 8751 8752 28
7002 8751 8753 28
7003 8751 8754 28
7004 8751 8755 28
7005 8756 8757 28
7006 8756 8758 28
7007 8756 8759 28
7008 8756 8760 28
7009 8761 8762 28
7010 8761 8763 28
7011 8761 8764 28
7012 8761 8765 28
7013 8766 8767 28
7014 8766 8768 28
7015 8766 8769 28
7016 8766 8770 28
7017 8771 8772 28
7018 8771 8773 28
7019 8771 8774 28
7020 8771 8775 28
7021 8776 8777 28
7022 8776 8778 28
7023 8776 8779 28
7024 8776 8780 28
7025 8781 8782 28
7026 8781 8783 28
7027 8781 8784 28
7028 8781 8785 28
7029 8786 8787 28
7030 8786 8788 28
7031 8786 8789 28
7032 8786 8790 28
7033 8791 8792 28
7034 8791 8793 28
7035 8791 8794 28
7036 8791 8795 28
7037 8796 8797 28
7038 8796 8798 28
7039 8796 8799 28
7040 8796 8800 28
7041 8801 8802 28
7042 8801 8803 28
7043 8801 8804 28
7044 8801 8805 28
7045 8806 8807 28
7046 8806 8808 28
7047 8806 8809 28
7048 8806 8810 28
7049 8811 8812 28
7050 8811 8813 28
7051 8811 8814 28
7052 8811 8815 28
7053 8816 8817 28
7054 8816 8818 28
7055 8816 8819 28
7056 8816 8820 28
7057 8821 8822 28
7058 8821 8823 28
7059 8821 8824 28
7060 8821 8825 28
7061 8826 8827 28
7062 8826 8828 28
7063 8826 8829 28
7064 8826 8830 28
7065 8831 8832 28
7066 8831 8833 28
7067 8831 8834 28
7068 8831 8835 28
7069 8836 8837 28
7070 8836 8838 28
7071 8836 8839 28
7072 8836 8840 28
7073 8841 8842 28
7074 8841 8843 28
7075 8841 8844 28
7076 8841 8845 28
7077 8846 8847 28
7078 8846 8848 28
7079 8846 8849 28
7080 8846 8850 28
7081 8851 8852 28
7082 8851 8853 28
7083 8851 8854 28
7084 8851 8855 28
7085 8856 8857 28
7086 8856 8858 28
7087 8856 8859 28
7088 8856 8860 28
7089 8861 8862 28
7090 8861 8863 28
7091 8861 8864 28
7092 8861 8865 28
7093 8866 8867 28
7094 8866 8868 28
7095 8866 8869 28
7096 8866 8870 28
7097 8871 8872 28
7098 8871 8873 28
7099 8871 8874 28
7100 8871 8875 28
7101 8876 8877 28
7102 8876 8878 28
7103 8876 8879 28
7104 8876 8880 28
7105 8881 8882 28
7106 8881 8883 28
7107 8881 8884 28
7108 8881 8885 28
7109 8886 8887 28
7110 8886 8888 28
7111 8886 8889 28
7112 8886 8890 28
7113 8891 8892 28
7114 8891 8893 28
7115 8891 8894 28
7116 8891 8895 28
7117 8896 8897 28
7118 8896 8898 28
7119 8896 8899 28
7120 8896 8900 28
7121 8901 8902 28
7122 8901 8903 28
7123 8901 8904 28
7124 8901 8905 28
7125 8906 8907 28
7126 8906 8908 28
7127 8906 8909 28
7128 8906 8910 28
7129 8911 8912 28
7130 8911 8913 28
7131 8911 8914 28
7132 8911 8915 28
7133 8916 8917 28
7134 8916 8918 28
7135 8916 8919 28
7136 8916 8920 28
7137 8921 8922 28
7138 8921 8923 28
7139 8921 8924 28
7140 8921 8925 28
7141 8926 8927 28
7142 8926 8928 28
7143 8926 8929 28
7144 8926 8930 28
7145 8931 8932 28
7146 8931 8933 28
7147 8931 8934 28
7148 8931 8935 28
7149 8936 8937 28
7150 8936 8938 28
7151 8936 8939 28
7152 8936 8940 28
7153 8941 8942 28
7154 8941 8943 28
7155 8941 8944 28
7156 8941 8945 28
7157 8946 8947 28
7158 8946 8948 28
7159 8946 8949 28
7160 8946 8950 28
7161 8951 8952 28
7162 8951 8953 28
7163 8951 8954 28
7164 8951 8955 28
7165 8956 8957 28
7166 8956 8958 28
7167 8956 8959 28
7168 8956 8960 28
7169 8961 8962 28
7170 8961 8963 28
7171 8961 8964 28
7172 8961 8965 28
7173 8966 8967 28
7174 8966 8968 28
7175 8966 8969 28
7176 8966 8970 28
7177 8971 8972 28
7178 8971 8973 28
7179 8971 8974 28
7180 8971 8975 28
7181 8976 8977 28
7182 8976 8978 28
7183 8976 8979 28
7184 8976 8980 28
7185 8981 8982 28
7186 8981 8983 28
7187 8981 8984 28
7188 8981 8985 28
7189 8986 8987 28
7190 8986 8988 28
7191 8986 8989 28
7192 8986 8990 28
7193 8991 8992 28
7194 8991 8993 28
7195 8991 8994 28
7196 8991 8995 28
7197 8996 8997 28
7198 8996 8998 28
7199 8996 8999 28
7200 8996 9000 28
7201 9001 9002 28
7202 9001 9003 28
7203 9001 9004 28
7204 9001 9005 28
7205 9006 9007 28
7206 9006 9008 28
7207 9006 9009 28
7208 9006 9010 28
7209 9011 9012 28
7210 9011 9013 28
7211 9011 9014 28
7212 9011 9015 28
7213 9016 9017 28
7214 9016 9018 28
7215 9016 9019 28
7216 9016 9020 28
7217 9021 9022 28
7218 9021 9023 28
7219 9021 9024 28
7220 9021 9025 28
7221 9026 9027 28
7222 9026 9028 28
7223 9026 9029 28
7224 9026 9030 28
7225 9031 9032 28
7226 9031 9033 28
7227 9031 9034 28
7228 9031 9035 28
7229 9036 9037 28
7230 9036 9038 28
7231 9036 9039 28
7232 9036 9040 28
7233 9041 9042 28
7234 9041 9043 28
7235 9041 9044 28
7236 9041 9045 28
7237 9046 9047 28
7238 9046 9048 28
7239 9046 9049 28
7240 9046 9050 28
7241 9051 9052 28
7242 9051 9053 28
7243 9051 9054 28
7244 9051 9055 28
7245 9056 9057 28
7246 9056 9058 28
7247 9056 9059 28
7248 9056 9060 28
7249 9061 9062 28
7250 9061 9063 28
7251 9061 9064 28
7252 9061 9065 28
7253 9066 9067 28
7254 9066 9068 28
7255 9066 9069 28
7256 9066 9070 28
7257 9071 9072 28
7258 9071 9073 28
7259 9071 9074 28
7260 9071 9075 28
7261 9076 9077 28
7262 9076 9078 28
7263 9076 9079 28
7264 9076 9080 28
7265 9081 9082 28
7266 9081 9083 28
7267 9081 9084 28
7268 9081 9085 28
7269 9086 9087 28
7270 9086 9088 28
7271 9086 9089 28
7272 9086 9090 28
7273 9091 9092 28
7274 9091 9093 28
7275 9091 9094 28
7276 9091 9095 28
7277 9096 9097 28
7278 9096 9098 28
7279 9096 9099 28
7280 9096 9100 28
7281 9101 9102 28
7282 9101 9103 28
7283 9101 9104 28
7284 9101 9105 28
7285 9106 9107 28
7286 9106 9108 28
7287 9106 9109 28
7288 9106 9110 28
7289 9111 9112 28
7290 9111 9113 28
7291 9111 9114 28
7292 9111 9115 28
7293 9116 9117 28
7294 9116 9118 28
7295 9116 9119 28
7296 9116 9120 28
7297 9121 9122 28
7298 9121 9123 28
7299 9121 9124 28
7300 9121 9125 28
7301 9126 9127 28
7302 9126 9128 28
7303 9126 9129 28
7304 9126 9130 28
7305 9131 9132 28
7306 9131 9133 28
7307 9131 9134 28
7308 9131 9135 28
7309 9136 9137 28
7310 9136 9138 28
7311 9136 9139 28
7312 9136 9140 28
7313 9141 9142 28
7314 9141 9143 28
7315 9141 9144 28
7316 9141 9145 28
7317 9146 9147 28
7318 9146 9148 28
7319 9146 9149 28
7320 9146 9150 28
7321 9151 9152 28
7322 9151 9153 28
7323 9151 9154 28
7324 9151 9155 28
7325 9156 9157 28
7326 9156 9158 28
7327 9156 9159 28
7328 9156 9160 28
7329 9161 9162 28
7330 9161 9163 28
7331 9161 9164 28
7332 9161 9165 28
7333 9166 9167 28
7334 9166 9168 28
7335 9166 9169 28
7336 9166 9170 28
7337 9171 9172 28
7338 9171 9173 28
7339 9171 9174 28
7340 9171 9175 28
7341 9176 9177 28
7342 9176 9178 28
7343 9176 9179 28
7344 9176 9180 28
7345 9181 9182 28
7346 9181 9183 28
7347 9181 9184 28
7348 9181 9185 28
7349 9186 9187 28
7350 9186 9188 28
7351 9186 9189 28
7352 9186 9190 28
7353 9191 9192 28
7354 9191 9193 28
7355 9191 9194 28
7356 9191 9195 28
7357 9196 9197 28
7358 9196 9198 28
7359 9196 9199 28
7360 9196 9200 28
7361 9201 9202 28
7362 9201 9203 28
7363 9201 9204 28
7364 9201 9205 28
7365 9206 9207 28
7366 9206 9208 28
7367 9206 9209 28
7368 9206 9210 28
7369 9211 9212 28
7370 9211 9213 28
7371 9211 9214 28
7372 9211 9215 28
7373 9216 9217 28
7374 9216 9218 28
7375 9216 9219 28
7376 9216 9220 28
7377 9221 9222 28
7378 9221 9223 28
7379 9221 9224 28
7380 9221 9225 28
7381 9226 9227 28
7382 9226 9228 28
7383 9226 9229 28
7384 9226 9230 28
7385 9231 9232 28
7386 9231 9233 28
7387 9231 9234 28
7388 9231 9235 28
7389 9236 9237 28
7390 9236 9238 28
7391 9236 9239 28
7392 9236 9240 28
7393 9241 9242 28
7394 9241 9243 28
7395 9241 9244 28
7396 9241 9245 28
7397 9246 9247 28
7398 9246 9248 28
7399 9246 9249 28
7400 9246 9250 28
7401 9251 9252 28
7402 9251 9253 28
7403 9251 9254 28
7404 9251 9255 28
7405 9256 9257 28
7406 9256 9258 28
7407 9256 9259 28
7408 9256 9260 28
7409 9261 9262 28
7410 9261 9263 28
7411 9261 9264 28
7412 9261 9265 28
7413 9266 9267 28
7414 9266 9268 28
7415 9266 9269 28
7416 9266 9270 28
7417 9271 9272 28
7418 9271 9273 28
7419 9271 9274 28
7420 9271 9275 28
7421 9276 9277 28
7422 9276 9278 28
7423 9276 9279 28
7424 9276 9280 28
7425 9281 9282 28
7426 9281 9283 28
7427 9281 9284 28
7428 9281 9285 28
7429 9286 9287 28
7430 9286 9288 28
7431 9286 9289 28
7432 9286 9290 28
7433 9291 9292 28
7434 9291 9293 28
7435 9291 9294 28
7436 9291 9295 28
7437 9296 9297 28
7438 9296 9298 28
7439 9296 9299 28
7440 9296 9300 28
7441 9301 9302 28
7442 9301 9303 28
7443 9301 9304 28
7444 9301 9305 28
7445 9306 9307 28
7446 9306 9308 28
7447 9306 9309 28
7448 9306 9310 28
7449 9311 9312 28
7450 9311 9313 28
7451 9311 9314 28
7452 9311 9315 28
7453 9316 9317 28
7454 9316 9318 28
7455 9316 9319 28
7456 9316 9320 28
7457 9321 9322 28
7458 9321 9323 28
7459 9321 9324 28
7460 9321 9325 28
7461 9326 9327 28
7462 9326 9328 28
7463 9326 9329 28
7464 9326 9330 28
7465 9331 9332 28
7466 9331 9333 28
7467 9331 9334 28
7468 9331 9335 28
7469 9336 9337 28
7470 9336 9338 28
7471 9336 9339 28
7472 9336 9340 28
7473 9341 9342 28
7474 9341 9343 28
7475 9341 9344 28
7476 9341 9345 28
7477 9346 9347 28
7478 9346 9348 28
7479 9346 9349 28
7480 9346 9350 28
7481 9351 9352 28
7482 9351 9353 28
7483 9351 9354 28
7484 9351 9355 28
7485 9356 9357 28
7486 9356 9358 28
7487 9356 9359 28
7488 9356 9360 28
7489 9361 9362 28
7490 9361 9363 28
7491 9361 9364 28
7492 9361 9365 28
7493 9366 9367 28
7494 9366 9368 28
7495 9366 9369 28
7496 9366 9370 28
7497 9371 9372 28
7498 9371 9373 28
7499 9371 9374 28
7500 9371 9375 28
7501 9376 9377 28
7502 9376 9378 28
7503 9376 9379 28
7504 9376 9380 28
7505 9381 9382 28
7506 9381 9383 28
7507 9381 9384 28
7508 9381 9385 28
7509 9386 9387 28
7510 9386 9388 28
7511 9386 9389 28
7512 9386 9390 28
7513 9391 9392 28
7514 9391 9393 28
7515 9391 9394 28
7516 9391 9395 28
7517 9396 9397 28
7518 9396 9398 28
7519 9396 9399 28
7520 9396 9400 28
7521 9401 9402 28
7522 9401 9403 28
7523 9401 9404 28
7524 9401 9405 28
7525 9406 9407 28
7526 9406 9408 28
7527 9406 9409 28
7528 9406 9410 28
7529 9411 9412 28
7530 9411 9413 28
7531 9411 9414 28
7532 9411 9415 28
7533 9416 9417 28
7534 9416 9418 28
7535 9416 9419 28
7536 9416 9420 28
7537 9421 9422 28
7538 9421 9423 28
7539 9421 9424 28
7540 9421 9425 28
7541 9426 9427 28
7542 9426 9428 28
7543 9426 9429 28
7544 9426 9430 28
7545 9431 9432 28
7546 9431 9433 28
7547 9431 9434 28
7548 9431 9435 28
7549 9436 9437 28
7550 9436 9438 28
7551 9436 9439 28
7552 9436 9440 28
7553 9441 9442 28
7554 9441 9443 28
7555 9441 9444 28
7556 9441 9445 28
7557 9446 9447 28
7558 9446 9448 28
7559 9446 9449 28
7560 9446 9450 28
7561 9451 9452 28
7562 9451 9453 28
7563 9451 9454 28
7564 9451 9455 28
7565 9456 9457 28
7566 9456 9458 28
7567 9456 9459 28
7568 9456 9460 28
7569 9461 9462 28
7570 9461 9463 28
7571 9461 9464 28
7572 9461 9465 28
7573 9466 9467 28
7574 9466 9468 28
7575 9466 9469 28
7576 9466 9470 28
7577 9471 9472 28
7578 9471 9473 28
7579 9471 9474 28
7580 9471 9475 28
7581 9476 9477 28
7582 9476 9478 28
7583 9476 9479 28
7584 9476 9480 28
7585 9481 9482 28
7586 9481 9483 28
7587 9481 9484 28
7588 9481 9485 28
7589 9486 9487 28
7590 9486 9488 28
7591 9486 9489 28
7592 9486 9490 28
7593 9491 9492 28
7594 9491 9493 28
7595 9491 9494 28
7596 9491 9495 28
7597 9496 9497 28
7598 9496 9498 28
7599 9496 9499 28
7600 9496 9500 28
7601 9501 9502 28
7602 9501 9503 28
7603 9501 9504 28
7604 9501 9505 28
7605 9506 9507 28
7606 9506 9508 28
7607 9506 9509 28
7608 9506 9510 28
7609 9511 9512 28
7610 9511 9513 28
7611 9511 9514 28
7612 9511 9515 28
7613 9516 9517 28
7614 9516 9518 28
7615 9516 9519 28
7616 9516 9520 28
7617 9521 9522 28
7618 9521 9523 28
7619 9521 9524 28
7620 9521 9525 28
7621 9526 9527 28
7622 9526 9528 28
7623 9526 9529 28
7624 9526 9530 28
7625 9531 9532 28
7626 9531 9533 28
7627 9531 9534 28
7628 9531 9535 28
7629 9536 9537 28
7630 9536 9538 28
7631 9536 9539 28
7632 9536 9540 28
7633 9541 9542 28
7634 9541 9543 28
7635 9541 9544 28
7636 9541 9545 28
7637 9546 9547 28
7638 9546 9548 28
7639 9546 9549 28
7640 9546 9550 28
7641 9551 9552 28
7642 9551 9553 28
7643 9551 9554 28
7644 9551 9555 28
7645 9556 9557 28
7646 9556 9558 28
7647 9556 9559 28
7648 9556 9560 28
7649 9561 9562 28
7650 9561 9563 28
7651 9561 9564 28
7652 9561 9565 28
7653 9566 9567 28
7654 9566 9568 28
7655 9566 9569 28
7656 9566 9570 28
7657 9571 9572 28
7658 9571 9573 28
7659 9571 9574 28
7660 9571 9575 28
7661 9576 9577 28
7662 9576 9578 28
7663 9576 9579 28
7664 9576 9580 28
7665 9581 9582 28
7666 9581 9583 28
7667 9581 9584 28
7668 9581 9585 28
7669 9586 9587 28
7670 9586 9588 28
7671 9586 9589 28
7672 9586 9590 28
7673 9591 9592 28
7674 9591 9593 28
7675 9591 9594 28
7676 9591 9595 28
7677 9596 9597 28
7678 9596 9598 28
7679 9596 9599 28
7680 9596 9600 28
7681 9601 9602 28
7682 9601 9603 28
7683 9601 9604 28
7684 9601 9605 28
7685 9606 9607 28
7686 9606 9608 28
7687 9606 9609 28
7688 9606 9610 28
7689 9611 9612 28
7690 9611 9613 28
7691 9611 9614 28
7692 9611 9615 28
7693 9616 9617 28
7694 9616 9618 28
7695 9616 9619 28
7696 9616 9620 28
7697 9621 9622 28
7698 9621 9623 28
7699 9621 9624 28
7700 9621 9625 28
7701 9626 9627 28
7702 9626 9628 28
7703 9626 9629 28
7704 9626 9630 28
7705 9631 9632 28
7706 9631 9633 28
7707 9631 9634 28
7708 9631 9635 28
7709 9636 9637 28
7710 9636 9638 28
7711 9636 9639 28
7712 9636 9640 28
7713 9641 9642 28
7714 9641 9643 28
7715 9641 9644 28
7716 9641 9645 28
7717 9646 9647 28
7718 9646 9648 28
7719 9646 9649 28
7720 9646 9650 28
7721 9651 9652 28
7722 9651 9653 28
7723 9651 9654 28
7724 9651 9655 28
7725 9656 9657 28
7726 9656 9658 28
7727 9656 9659 28
7728 9656 9660 28
7729 9661 9662 28
7730 9661 9663 28
7731 9661 9664 28
7732 9661 9665 28
7733 9666 9667 28
7734 9666 9668 28
7735 9666 9669 28
7736 9666 9670 28
7737 9671 9672 28
7738 9671 9673 28
7739 9671 9674 28
7740 9671 9675 28
7741 9676 9677 28
7742 9676 9678 28
7743 9676 9679 28
7744 9676 9680 28
7745 9681 9682 28
7746 9681 9683 28
7747 9681 9684 28
7748 9681 9685 28
7749 9686 9687 28
7750 9686 9688 28
7751 9686 9689 28
7752 9686 9690 28
7753 9691 9692 28
7754 9691 9693 28
7755 9691 9694 28
7756 9691 9695 28
7757 9696 9697 28
7758 9696 9698 28
7759 9696 9699 28
7760 9696 9700 28
7761 9701 9702 28
7762 9701 9703 28
7763 9701 9704 28
7764 9701 9705 28
7765 9706 9707 28
7766 9706 9708 28
7767 9706 9709 28
7768 9706 9710 28
7769 9711 9712 28
7770 9711 9713 28
7771 9711 9714 28
7772 9711 9715 28
7773 9716 9717 28
7774 9716 9718 28
7775 9716 9719 28
7776 9716 9720 28
7777 9721 9722 28
7778 9721 9723 28
7779 9721 9724 28
7780 9721 9725 28
7781 9726 9727 28
7782 9726 9728 28
7783 9726 9729 28
7784 9726 9730 28
7785 9731 9732 28
7786 9731 9733 28
7787 9731 9734 28
7788 9731 9735 28
7789 9736 9737 28
7790 9736 9738 28
7791 9736 9739 28
7792 9736 9740 28
7793 9741 9742 28
7794 9741 9743 28
7795 9741 9744 28
7796 9741 9745 28
7797 9746 9747 28
7798 9746 9748 28
7799 9746 9749 28
7800 9746 9750 28
7801 9751 9752 28
7802 9751 9753 28
7803 9751 9754 28
7804 9751 9755 28
7805 9756 9757 28
7806 9756 9758 28
7807 9756 9759 28
7808 9756 9760 28
7809 9761 9762 28
7810 9761 9763 28
7811 9761 9764 28
7812 9761 9765 28
7813 9766 9767 28
7814 9766 9768 28
7815 9766 9769 28
7816 9766 9770 28
7817 9771 9772 28
7818 9771 9773 28
7819 9771 9774 28
7820 9771 9775 28
7821 9776 9777 28
7822 9776 9778 28
7823 9776 9779 28
7824 9776 9780 28
7825 9781 9782 28
7826 9781 9783 28
7827 9781 9784 28
7828 9781 9785 28
7829 9786 9787 28
7830 9786 9788 28
7831 9786 9789 28
7832 9786 9790 28
7833 9791 9792 28
7834 9791 9793 28
7835 9791 9794 28
7836 9791 9795 28
7837 9796 9797 28
7838 9796 9798 28
7839 9796 9799 28
7840 9796 9800 28
7841 9801 9802 28
7842 9801 9803 28
7843 9801 9804 28
7844 9801 9805 28
7845 9806 9807 28
7846 9806 9808 28
7847 9806 9809 28
7848 9806 9810 28
7849 9811 9812 28
7850 9811 9813 28
7851 9811 9814 28
7852 9811 9815 28
7853 9816 9817 28
7854 9816 9818 28
7855 9816 9819 28
7856 9816 9820 28
7857 9821 9822 28
7858 9821 9823 28
7859 9821 9824 28
7860 9821 9825 28
7861 9826 9827 28
7862 9826 9828 28
7863 9826 9829 28
7864 9826 9830 28
7865 9831 9832 28
7866 9831 9833 28
7867 9831 9834 28
7868 9831 9835 28
7869 9836 9837 28
7870 9836 9838 28
7871 9836 9839 28
7872 9836 9840 28
7873 9841 9842 28
7874 9841 9843 28
7875 9841 9844 28
7876 9841 9845 28
7877 9846 9847 28
7878 9846 9848 28
7879 9846 9849 28
7880 9846 9850 28
7881 9851 9852 28
7882 9851 9853 28
7883 9851 9854 28
7884 9851 9855 28
7885 9856 9857 28
7886 9856 9858 28
7887 9856 9859 28
7888 9856 9860 28
7889 9861 9862 28
7890 9861 9863 28
7891 9861 9864 28
7892 9861 9865 28
7893 9866 9867 28
7894 9866 9868 28
7895 9866 9869 28
7896 9866 9870 28
7897 9871 9872 28
7898 9871 9873 28
7899 9871 9874 28
7900 9871 9875 28
7901 9876 9877 28
7902 9876 9878 28
7903 9876 9879 28
7904 9876 9880 28
7905 9881 9882 28
7906 9881 9883 28
7907 9881 9884 28
7908 9881 9885 28
7909 9886 9887 28
7910 9886 9888 28
7911 9886 9889 28
7912 9886 9890 28
7913 9891 9892 28
7914 9891 9893 28
7915 9891 9894 28
7916 9891 9895 28
7917 9896 9897 28
7918 9896 9898 28
7919 9896 9899 28
7920 9896 9900 28
7921 9901 9902 28
7922 9901 9903 28
7923 9901 9904 28
7924 9901 9905 28
7925 9906 9907 28
7926 9906 9908 28
7927 9906 9909 28
7928 9906 9910 28
7929 9911 9912 28
7930 9911 9913 28
7931 9911 9914 28
7932 9911 9915 28
7933 9916 9917 28
7934 9916 9918 28
7935 9916 9919 28
7936 9916 9920 28
7937 9921 9922 28
7938 9921 9923 28
7939 9921 9924 28
7940 9921 9925 28
7941 9926 9927 28
7942 9926 9928 28
7943 9926 9929 28
7944 9926 9930 28
7945 9931 9932 28
7946 9931 9933 28
7947 9931 9934 28
7948 9931 9935 28
7949 9936 9937 28
7950 9936 9938 28
7951 9936 9939 28
7952 9936 9940 28
7953 9941 9942 28
7954 9941 9943 28
7955 9941 9944 28
7956 9941 9945 28
7957 9946 9947 28
7958 9946 9948 28
7959 9946 9949 28
7960 9946 9950 28
7961 9951 9952 28
7962 9951 9953 28
7963 9951 9954 28
7964 9951 9955 28
7965 9956 9957 28
7966 9956 9958 28
7967 9956 9959 28
7968 9956 9960 28
7969 9961 9962 28
7970 9961 9963 28
7971 9961 9964 28
7972 9961 9965 28
7973 9966 9967 28
7974 9966 9968 28
7975 9966 9969 28
7976 9966 9970 28
7977 9971 9972 28
7978 9971 9973 28
7979 9971 9974 28
7980 9971 9975 28
7981 9976 9977 28
7982 9976 9978 28
7983 9976 9979 28
7984 9976 9980 28
7985 9981 9982 28
7986 9981 9983 28
7987 9981 9984 28
7988 9981 9985 28
7989 9986 9987 28
7990 9986 9988 28
7991 9986 9989 28
7992 9986 9990 28
7993 9991 9992 28
7994 9991 9993 28
7995 9991 9994 28
7996 9991 9995 28
7997 9996 9997 28
7998 9996 9998 28
7999 9996 9999 28
8000 9996 10000 28
8001 10001 10002 28
8002 10001 10003 28
8003 10001 10004 28
8004 10001 10005 28
8005 10006 10007 28
8006 10006 10008 28
8007 10006 10009 28
8008 10006 10010 28
8009 10011 10012 28
8010 10011 10013 28
8011 10011 10014 28
8012 10011 10015 28
8013 10016 10017 28
8014 10016 10018 28
8015 10016 10019 28
8016 10016 10020 28
8017 10021 10022 28
8018 10021 10023 28
8019 10021 10024 28
8020 10021 10025 28
8021 10026 10027 28
8022 10026 10028 28
8023 10026 10029 28
8024 10026 10030 28
8025 10031 10032 28
8026 10031 10033 28
8027 10031 10034 28
8028 10031 10035 28
8029 10036 10037 28
8030 10036 10038 28
8031 10036 10039 28
8032 10036 10040 28
8033 10041 10042 28
8034 10041 10043 28
8035 10041 10044 28
8036 10041 10045 28
8037 10046 10047 28
8038 10046 10048 28
8039 10046 10049 28
8040 10046 10050 28
8041 10051 10052 28
8042 10051 10053 28
8043 10051 10054 28
8044 10051 10055 28
8045 10056 10057 28
8046 10056 10058 28
8047 10056 10059 28
8048 10056 10060 28
8049 10061 10062 28
8050 10061 10063 28
8051 10061 10064 28
8052 10061 10065 28
8053 10066 10067 28
8054 10066 10068 28
8055 10066 10069 28
8056 10066 10070 28
8057 10071 10072 28
8058 10071 10073 28
8059 10071 10074 28
8060 10071 10075 28
8061 10076 10077 28
8062 10076 10078 28
8063 10076 10079 28
8064 10076 10080 28
8065 10081 10082 28
8066 10081 10083 28
8067 10081 10084 28
8068 10081 10085 28
8069 10086 10087 28
8070 10086 10088 28
8071 10086 10089 28
8072 10086 10090 28
8073 10091 10092 28
8074 10091 10093 28
8075 10091 10094 28
8076 10091 10095 28
8077 10096 10097 28
8078 10096 10098 28
8079 10096 10099 28
8080 10096 10100 28
8081 10101 10102 28
8082 10101 10103 28
8083 10101 10104 28
8084 10101 10105 28
8085 10106 10107 28
8086 10106 10108 28
8087 10106 10109 28
8088 10106 10110 28
8089 10111 10112 28
8090 10111 10113 28
8091 10111 10114 28
8092 10111 10115 28
8093 10116 10117 28
8094 10116 10118 28
8095 10116 10119 28
8096 10116 10120 28
8097 10121 10122 28
8098 10121 10123 28
8099 10121 10124 28
8100 10121 10125 28
8101 10126 10127 28
8102 10126 10128 28
8103 10126 10129 28
8104 10126 10130 28
8105 10131 10132 28
8106 10131 10133 28
8107 10131 10134 28
8108 10131 10135 28
8109 10136 10137 28
8110 10136 10138 28
8111 10136 10139 28
8112 10136 10140 28
8113 10141 10142 28
8114 10141 10143 28
8115 10141 10144 28
8116 10141 10145 28
8117 10146 10147 28
8118 10146 10148 28
8119 10146 10149 28
8120 10146 10150 28
8121 10151 10152 28
8122 10151 10153 28
8123 10151 10154 28
8124 10151 10155 28
8125 10156 10157 28
8126 10156 10158 28
8127 10156 10159 28
8128 10156 10160 28
8129 10161 10162 28
8130 10161 10163 28
8131 10161 10164 28
8132 10161 10165 28
8133 10166 10167 28
8134 10166 10168 28
8135 10166 10169 28
8136 10166 10170 28
8137 10171 10172 28
8138 10171 10173 28
8139 10171 10174 28
8140 10171 10175 28
8141 10176 10177 28
8142 10176 10178 28
8143 10176 10179 28
8144 10176 10180 28
8145 10181 10182 28
8146 10181 10183 28
8147 10181 10184 28
8148 10181 10185 28
8149 10186 10187 28
8150 10186 10188 28
8151 10186 10189 28
8152 10186 10190 28
8153 10191 10192 28
8154 10191 10193 28
8155 10191 10194 28
8156 10191 10195 28
8157 10196 10197 28
8158 10196 10198 28
8159 10196 10199 28
8160 10196 10200 28
8161 10201 10202 28
8162 10201 10203 28
8163 10201 10204 28
8164 10201 10205 28
8165 10206 10207 28
8166 10206 10208 28
8167 10206 10209 28
8168 10206 10210 28
8169 10211 10212 28
8170 10211 10213 28
8171 10211 10214 28
8172 10211 10215 28
8173 10216 10217 28
8174 10216 10218 28
8175 10216 10219 28
8176 10216 10220 28
8177 10221 10222 28
8178 10221 10223 28
8179 10221 10224 28
8180 10221 10225 28
8181 10226 10227 28
8182 10226 10228 28
8183 10226 10229 28
8184 10226 10230 28
8185 10231 10232 28
8186 10231 10233 28
8187 10231 10234 28
8188 10231 10235 28
8189 10236 10237 28
8190 10236 10238 28
8191 10236 10239 28
8192 10236 10240 28
8193 10241 10242 28
8194 10241 10243 28
8195 10241 10244 28
8196 10241 10245 28
8197 10246 10247 28
8198 10246 10248 28
8199 10246 10249 28
8200 10246 10250 28
8201 10251 10252 28
8202 10251 10253 28
8203 10251 10254 28
8204 10251 10255 28
8205 10256 10257 28
8206 10256 10258 28
8207 10256 10259 28
8208 10256 10260 28
8209 10261 10262 28
8210 10261 10263 28
8211 10261 10264 28
8212 10261 10265 28
8213 10266 10267 28
8214 10266 10268 28
8215 10266 10269 28
8216 10266 10270 28
8217 10271 10272 28
8218 10271 10273 28
8219 10271 10274 28
8220 10271 10275 28
8221 10276 10277 28
8222 10276 10278 28
8223 10276 10279 28
8224 10276 10280 28
8225 10281 10282 28
8226 10281 10283 28
8227 10281 10284 28
8228 10281 10285 28
8229 10286 10287 28
8230 10286 10288 28
8231 10286 10289 28
8232 10286 10290 28
8233 10291 10292 28
8234 10291 10293 28
8235 10291 10294 28
8236 10291 10295 28
8237 10296 10297 28
8238 10296 10298 28
8239 10296 10299 28
8240 10296 10300 28
8241 10301 10302 28
8242 10301 10303 28
8243 10301 10304 28
8244 10301 10305 28
8245 10306 10307 28
8246 10306 10308 28
8247 10306 10309 28
8248 10306 10310 28
8249 10311 10312 28
8250 10311 10313 28
8251 10311 10314 28
8252 10311 10315 28
8253 10316 10317 28
8254 10316 10318 28
8255 10316 10319 28
8256 10316 10320 28
8257 10321 10322 28
8258 10321 10323 28
8259 10321 10324 28
8260 10321 10325 28
8261 10326 10327 28
8262 10326 10328 28
8263 10326 10329 28
8264 10326 10330 28
8265 10331 10332 28
8266 10331 10333 28
8267 10331 10334 28
8268 10331 10335 28
8269 10336 10337 28
8270 10336 10338 28
8271 10336 10339 28
8272 10336 10340 28
8273 10341 10342 28
8274 10341 10343 28
8275 10341 10344 28
8276 10341 10345 28
8277 10346 10347 28
8278 10346 10348 28
8279 10346 10349 28
8280 10346 10350 28
8281 10351 10352 28
8282 10351 10353 28
8283 10351 10354 28
8284 10351 10355 28
8285 10356 10357 28
8286 10356 10358 28
8287 10356 10359 28
8288 10356 10360 28
8289 10361 10362 28
8290 10361 10363 28
8291 10361 10364 28
8292 10361 10365 28
8293 10366 10367 28
8294 10366 10368 28
8295 10366 10369 28
8296 10366 10370 28
8297 10371 10372 28
8298 10371 10373 28
8299 10371 10374 28
8300 10371 10375 28
8301 10376 10377 28
8302 10376 10378 28
8303 10376 10379 28
8304 10376 10380 28
8305 10381 10382 28
8306 10381 10383 28
8307 10381 10384 28
8308 10381 10385 28
8309 10386 10387 28
8310 10386 10388 28
8311 10386 10389 28
8312 10386 10390 28
8313 10391 10392 28
8314 10391 10393 28
8315 10391 10394 28
8316 10391 10395 28
8317 10396 10397 28
8318 10396 10398 28
8319 10396 10399 28
8320 10396 10400 28
8321 10401 10402 28
8322 10401 10403 28
8323 10401 10404 28
8324 10401 10405 28
8325 10406 10407 28
8326 10406 10408 28
8327 10406 10409 28
8328 10406 10410 28
8329 10411 10412 28
8330 10411 10413 28
8331 10411 10414 28
8332 10411 10415 28
8333 10416 10417 28
8334 10416 10418 28
8335 10416 10419 28
8336 10416 10420 28
8337 10421 10422 28
8338 10421 10423 28
8339 10421 10424 28
8340 10421 10425 28
8341 10426 10427 28
8342 10426 10428 28
8343 10426 10429 28
8344 10426 10430 28
8345 10431 10432 28
8346 10431 10433 28
8347 10431 10434 28
8348 10431 10435 28
8349 10436 10437 28
8350 10436 10438 28
8351 10436 10439 28
8352 10436 10440 28
8353 10441 10442 28
8354 10441 10443 28
8355 10441 10444 28
8356 10441 10445 28
8357 10446 10447 28
8358 10446 10448 28
8359 10446 10449 28
8360 10446 10450 28
8361 10451 10452 28
8362 10451 10453 28
8363 10451 10454 28
8364 10451 10455 28
8365 10456 10457 28
8366 10456 10458 28
8367 10456 10459 28
8368 10456 10460 28
8369 10461 10462 28
8370 10461 10463 28
8371 10461 10464 28
8372 10461 10465 28
8373 10466 10467 28
8374 10466 10468 28
8375 10466 10469 28
8376 10466 10470 28
8377 10471 10472 28
8378 10471 10473 28
8379 10471 10474 28
8380 10471 10475 28
8381 10476 10477 28
8382 10476 10478 28
8383 10476 10479 28
8384 10476 10480 28
8385 10481 10482 28
8386 10481 10483 28
8387 10481 10484 28
8388 10481 10485 28
8389 10486 10487 28
8390 10486 10488 28
8391 10486 10489 28
8392 10486 10490 28
8393 10491 10492 28
8394 10491 10493 28
8395 10491 10494 28
8396 10491 10495 28
8397 10496 10497 28
8398 10496 10498 28
8399 10496 10499 28
8400 10496 10500 28
8401 10501 10502 28
8402 10501 10503 28
8403 10501 10504 28
8404 10501 10505 28
8405 10506 10507 28
8406 10506 10508 28
8407 10506 10509 28
8408 10506 10510 28
8409 10511 10512 28
8410 10511 10513 28
8411 10511 10514 28
8412 10511 10515 28
8413 10516 10517 28
8414 10516 10518 28
8415 10516 10519 28
8416 10516 10520 28
8417 10521 10522 28
8418 10521 10523 28
8419 10521 10524 28
8420 10521 10525 28
8421 10526 10527 28
8422 10526 10528 28
8423 10526 10529 28
8424 10526 10530 28
8425 10531 10532 28
8426 10531 10533 28
8427 10531 10534 28
8428 10531 10535 28
8429 10536 10537 28
8430 10536 10538 28
8431 10536 10539 28
8432 10536 10540 28
8433 10541 10542 28
8434 10541 10543 28
8435 10541 10544 28
8436 10541 10545 28
8437 10546 10547 28
8438 10546 10548 28
8439 10546 10549 28
8440 10546 10550 28
8441 10551 10552 28
8442 10551 10553 28
8443 10551 10554 28
8444 10551 10555 28
8445 10556 10557 28
8446 10556 10558 28
8447 10556 10559 28
8448 10556 10560 28
8449 10561 10562 28
8450 10561 10563 28
8451 10561 10564 28
8452 10561 10565 28
8453 10566 10567 28
8454 10566 10568 28
8455 10566 10569 28
8456 10566 10570 28
8457 10571 10572 28
8458 10571 10573 28
8459 10571 10574 28
8460 10571 10575 28
8461 10576 10577 28
8462 10576 10578 28
8463 10576 10579 28
8464 10576 10580 28
8465 10581 10582 28
8466 10581 10583 28
8467 10581 10584 28
8468 10581 10585 28
8469 10586 10587 28
8470 10586 10588 28
8471 10586 10589 28
8472 10586 10590 28
8473 10591 10592 28
8474 10591 10593 28
8475 10591 10594 28
8476 10591 10595 28
8477 10596 10597 28
8478 10596 10598 28
8479 10596 10599 28
8480 10596 10600 28
8481 10601 10602 28
8482 10601 10603 28
8483 10601 10604 28
8484 10601 10605 28
8485 10606 10607 28
8486 10606 10608 28
8487 10606 10609 28
8488 10606 10610 28
8489 10611 10612 28
8490 10611 10613 28
8491 10611 10614 28
8492 10611 10615 28
8493 10616 10617 28
8494 10616 10618 28
8495 10616 10619 28
8496 10616 10620 28
8497 10621 10622 28
8498 10621 10623 28
8499 10621 10624 28
8500 10621 10625 28
8501 10626 10627 28
8502 10626 10628 28
8503 10626 10629 28
8504 10626 10630 28
8505 10631 10632 28
8506 10631 10633 28
8507 10631 10634 28
8508 10631 10635 28
8509 10636 10637 28
8510 10636 10638 28
8511 10636 10639 28
8512 10636 10640 28
8513 10641 10642 28
8514 10641 10643 28
8515 10641 10644 28
8516 10641 10645 28
8517 10646 10647 28
8518 10646 10648 28
8519 10646 10649 28
8520 10646 10650 28
8521 10651 10652 28
8522 10651 10653 28
8523 10651 10654 28
8524 10651 10655 28
8525 10656 10657 28
8526 10656 10658 28
8527 10656 10659 28
8528 10656 10660 28
8529 10661 10662 28
8530 10661 10663 28
8531 10661 10664 28
8532 10661 10665 28
8533 10666 10667 28
8534 10666 10668 28
8535 10666 10669 28
8536 10666 10670 28
8537 10671 10672 28
8538 10671 10673 28
8539 10671 10674 28
8540 10671 10675 28
8541 10676 10677 28
8542 10676 10678 28
8543 10676 10679 28
8544 10676 10680 28
8545 10681 10682 28
8546 10681 10683 28
8547 10681 10684 28
8548 10681 10685 28
8549 10686 10687 28
8550 10686 10688 28
8551 10686 10689 28
8552 10686 10690 28
8553 10691 10692 28
8554 10691 10693 28
8555 10691 10694 28
8556 10691 10695 28
8557 10696 10697 28
8558 10696 10698 28
8559 10696 10699 28
8560 10696 10700 28
8561 10701 10702 28
8562 10701 10703 28
8563 10701 10704 28
8564 10701 10705 28
8565 10706 10707 28
8566 10706 10708 28
8567 10706 10709 28
8568 10706 10710 28
8569 10711 10712 28
8570 10711 10713 28
8571 10711 10714 28
8572 10711 10715 28
8573 10716 10717 28
8574 10716 10718 28
8575 10716 10719 28
8576 10716 10720 28
8577 10721 10722 28
8578 10721 10723 28
8579 10721 10724 28
8580 10721 10725 28
8581 10726 10727 28
8582 10726 10728 28
8583 10726 10729 28
8584 10726 10730 28
8585 10731 10732 28
8586 10731 10733 28
8587 10731 10734 28
8588 10731 10735 28
8589 10736 10737 28
8590 10736 10738 28
8591 10736 10739 28
8592 10736 10740 28
8593 10741 10742 28
8594 10741 10743 28
8595 10741 10744 28
8596 10741 10745 28
8597 10746 10747 28
8598 10746 10748 28
8599 10746 10749 28
8600 10746 10750 28
8601 10751 10752 28
8602 10751 10753 28
8603 10751 10754 28
8604 10751 10755 28
8605 10756 10757 28
8606 10756 10758 28
8607 10756 10759 28
8608 10756 10760 28
8609 10761 10762 28
8610 10761 10763 28
8611 10761 10764 28
8612 10761 10765 28
8613 10766 10767 28
8614 10766 10768 28
8615 10766 10769 28
8616 10766 10770 28
8617 10771 10772 28
8618 10771 10773 28
8619 10771 10774 28
8620 10771 10775 28
8621 10776 10777 28
8622 10776 10778 28
8623 10776 10779 28
8624 10776 10780 28
8625 10781 10782 28
8626 10781 10783 28
8627 10781 10784 28
8628 10781 10785 28
8629 10786 10787 28
8630 10786 10788 28
8631 10786 10789 28
8632 10786 10790 28
8633 10791 10792 28
8634 10791 10793 28
8635 10791 10794 28
8636 10791 10795 28
8637 10796 10797 28
8638 10796 10798 28
8639 10796 10799 28
8640 10796 10800 28
8641 10801 10802 28
8642 10801 10803 28
8643 10801 10804 28
8644 10801 10805 28
8645 10806 10807 28
8646 10806 10808 28
8647 10806 10809 28
8648 10806 10810 28
8649 10811 10812 28
8650 10811 10813 28
8651 10811 10814 28
8652 10811 10815 28
8653 10816 10817 28
8654 10816 10818 28
8655 10816 10819 28
8656 10816 10820 28
8657 10821 10822 28
8658 10821 10823 28
8659 10821 10824 28
8660 10821 10825 28
8661 10826 10827 28
8662 10826 10828 28
8663 10826 10829 28
8664 10826 10830 28
8665 10831 10832 28
8666 10831 10833 28
8667 10831 10834 28
8668 10831 10835 28
8669 10836 10837 28
8670 10836 10838 28
8671 10836 10839 28
8672 10836 10840 28
8673 10841 10842 28
8674 10841 10843 28
8675 10841 10844 28
8676 10841 10845 28
8677 10846 10847 28
8678 10846 10848 28
8679 10846 10849 28
8680 10846 10850 28
8681 10851 10852 28
8682 10851 10853 28
8683 10851 10854 28
8684 10851 10855 28
8685 10856 10857 28
8686 10856 10858 28
8687 10856 10859 28
8688 10856 10860 28
8689 10861 10862 28
8690 10861 10863 28
8691 10861 10864 28
8692 10861 10865 28
8693 10866 10867 28
8694 10866 10868 28
8695 10866 10869 28
8696 10866 10870 28
8697 10871 10872 28
8698 10871 10873 28
8699 10871 10874 28
8700 10871 10875 28
8701 10876 10877 28
8702 10876 10878 28
8703 10876 10879 28
8704 10876 10880 28
8705 10881 10882 28
8706 10881 10883 28
8707 10881 10884 28
8708 10881 10885 28
8709 10886 10887 28
8710 10886 10888 28
8711 10886 10889 28
8712 10886 10890 28
8713 10891 10892 28
8714 10891 10893 28
8715 10891 10894 28
8716 10891 10895 28
8717 10896 10897 28
8718 10896 10898 28
8719 10896 10899 28
8720 10896 10900 28
8721 10901 10902 28
8722 10901 10903 28
8723 10901 10904 28
8724 10901 10905 28
8725 10906 10907 28
8726 10906 10908 28
8727 10906 10909 28
8728 10906 10910 28
8729 10911 10912 28
8730 10911 10913 28
8731 10911 10914 28
8732 10911 10915 28
8733 10916 10917 28
8734 10916 10918 28
8735 10916 10919 28
8736 10916 10920 28
8737 10921 10922 28
8738 10921 10923 28
8739 10921 10924 28
8740 10921 10925 28
8741 10926 10927 28
8742 10926 10928 28
8743 10926 10929 28
8744 10926 10930 28
8745 10931 10932 28
8746 10931 10933 28
8747 10931 10934 28
8748 10931 10935 28
8749 10936 10937 28
8750 10936 10938 28
8751 10936 10939 28
8752 10936 10940 28
8753 10941 10942 28
8754 10941 10943 28
8755 10941 10944 28
8756 10941 10945 28
8757 10946 10947 28
8758 10946 10948 28
8759 10946 10949 28
8760 10946 10950 28
8761 10951 10952 28
8762 10951 10953 28
8763 10951 10954 28
8764 10951 10955 28
8765 10956 10957 28
8766 10956 10958 28
8767 10956 10959 28
8768 10956 10960 28
8769 10961 10962 28
8770 10961 10963 28
8771 10961 10964 28
8772 10961 10965 28
8773 10966 10967 28
8774 10966 10968 28
8775 10966 10969 28
8776 10966 10970 28
8777 10971 10972 28
8778 10971 10973 28
8779 10971 10974 28
8780 10971 10975 28
8781 10976 10977 28
8782 10976 10978 28
8783 10976 10979 28
8784 10976 10980 28
8785 10981 10982 28
8786 10981 10983 28
8787 10981 10984 28
8788 10981 10985 28
8789 10986 10987 28
8790 10986 10988 28
8791 10986 10989 28
8792 10986 10990 28
8793 10991 10992 28
8794 10991 10993 28
8795 10991 10994 28
8796 10991 10995 28
8797 10996 10997 28
8798 10996 10998 28
8799 10996 10999 28
8800 10996 11000 28
8801 11001 11002 28
8802 11001 11003 28
8803 11001 11004 28
8804 11001 11005 28
8805 11006 11007 28
8806 11006 11008 28
8807 11006 11009 28
8808 11006 11010 28
8809 11011 11012 28
8810 11011 11013 28
8811 11011 11014 28
8812 11011 11015 28
8813 11016 11017 28
8814 11016 11018 28
8815 11016 11019 28
8816 11016 11020 28
8817 11021 11022 28
8818 11021 11023 28
8819 11021 11024 28
8820 11021 11025 28
8821 11026 11027 28
8822 11026 11028 28
8823 11026 11029 28
8824 11026 11030 28
8825 11031 11032 28
8826 11031 11033 28
8827 11031 11034 28
8828 11031 11035 28
8829 11036 11037 28
8830 11036 11038 28
8831 11036 11039 28
8832 11036 11040 28
8833 11041 11042 28
8834 11041 11043 28
8835 11041 11044 28
8836 11041 11045 28
8837 11046 11047 28
8838 11046 11048 28
8839 11046 11049 28
8840 11046 11050 28
8841 11051 11052 28
8842 11051 11053 28
8843 11051 11054 28
8844 11051 11055 28
8845 11056 11057 28
8846 11056 11058 28
8847 11056 11059 28
8848 11056 11060 28
8849 11061 11062 28
8850 11061 11063 28
8851 11061 11064 28
8852 11061 11065 28
8853 11066 11067 28
8854 11066 11068 28
8855 11066 11069 28
8856 11066 11070 28
8857 11071 11072 28
8858 11071 11073 28
8859 11071 11074 28
8860 11071 11075 28
8861 11076 11077 28
8862 11076 11078 28
8863 11076 11079 28
8864 11076 11080 28
8865 11081 11082 28
8866 11081 11083 28
8867 11081 11084 28
8868 11081 11085 28
8869 11086 11087 28
8870 11086 11088 28
8871 11086 11089 28
8872 11086 11090 28
8873 11091 11092 28
8874 11091 11093 28
8875 11091 11094 28
8876 11091 11095 28
8877 11096 11097 28
8878 11096 11098 28
8879 11096 11099 28
8880 11096 11100 28
8881 11101 11102 28
8882 11101 11103 28
8883 11101 11104 28
8884 11101 11105 28
8885 11106 11107 28
8886 11106 11108 28
8887 11106 11109 28
8888 11106 11110 28
8889 11111 11112 28
8890 11111 11113 28
8891 11111 11114 28
8892 11111 11115 28
8893 11116 11117 28
8894 11116 11118 28
8895 11116 11119 28
8896 11116 11120 28
8897 11121 11122 28
8898 11121 11123 28
8899 11121 11124 28
8900 11121 11125 28
8901 11126 11127 28
8902 11126 11128 28
8903 11126 11129 28
8904 11126 11130 28
8905 11131 11132 28
8906 11131 11133 28
8907 11131 11134 28
8908 11131 11135 28
8909 11136 11137 28
8910 11136 11138 28
8911 11136 11139 28
8912 11136 11140 28
8913 11141 11142 28
8914 11141 11143 28
8915 11141 11144 28
8916 11141 11145 28
8917 11146 11147 28
8918 11146 11148 28
8919 11146 11149 28
8920 11146 11150 28
8921 11151 11152 28
8922 11151 11153 28
8923 11151 11154 28
8924 11151 11155 28
8925 11156 11157 28
8926 11156 11158 28
8927 11156 11159 28
8928 11156 11160 28
8929 11161 11162 28
8930 11161 11163 28
8931 11161 11164 28
8932 11161 11165 28
8933 11166 11167 28
8934 11166 11168 28
8935 11166 11169 28
8936 11166 11170 28
8937 11171 11172 28
8938 11171 11173 28
8939 11171 11174 28
8940 11171 11175 28
8941 11176 11177 28
8942 11176 11178 28
8943 11176 11179 28
8944 11176 11180 28
8945 11181 11182 28
8946 11181 11183 28
8947 11181 11184 28
8948 11181 11185 28
8949 11186 11187 28
8950 11186 11188 28
8951 11186 11189 28
8952 11186 11190 28
8953 11191 11192 28
8954 11191 11193 28
8955 11191 11194 28
8956 11191 11195 28
8957 11196 11197 28
8958 11196 11198 28
8959 11196 11199 28
8960 11196 11200 28
8961 11201 11202 28
8962 11201 11203 28
8963 11201 11204 28
8964 11201 11205 28
8965 11206 11207 28
8966 11206 11208 28
8967 11206 11209 28
8968 11206 11210 28
8969 11211 11212 28
8970 11211 11213 28
8971 11211 11214 28
8972 11211 11215 28
8973 11216 11217 28
8974 11216 11218 28
8975 11216 11219 28
8976 11216 11220 28
8977 11221 11222 28
8978 11221 11223 28
8979 11221 11224 28
8980 11221 11225 28
8981 11226 11227 28
8982 11226 11228 28
8983 11226 11229 28
8984 11226 11230 28
8985 11231 11232 28
8986 11231 11233 28
8987 11231 11234 28
8988 11231 11235 28
8989 11236 11237 28
8990 11236 11238 28
8991 11236 11239 28
8992 11236 11240 28
8993 11241 11242 28
8994 11241 11243 28
8995 11241 11244 28
8996 11241 11245 28
8997 11246 11247 28
8998 11246 11248 28
8999 11246 11249 28
9000 11246 11250 28
9001 11251 11252 28
9002 11251 11253 28
9003 11251 11254 28
9004 11251 11255 28
9005 11256 11257 28
9006 11256 11258 28
9007 11256 11259 28
9008 11256 11260 28
9009 11261 11262 28
9010 11261 11263 28
9011 11261 11264 28
9012 11261 11265 28
9013 11266 11267 28
9014 11266 11268 28
9015 11266 11269 28
9016 11266 11270 28
9017 11271 11272 28
9018 11271 11273 28
9019 11271 11274 28
9020 11271 11275 28
9021 11276 11277 28
9022 11276 11278 28
9023 11276 11279 28
9024 11276 11280 28
9025 11281 11282 28
9026 11281 11283 28
9027 11281 11284 28
9028 11281 11285 28
9029 11286 11287 28
9030 11286 11288 28
9031 11286 11289 28
9032 11286 11290 28
9033 11291 11292 28
9034 11291 11293 28
9035 11291 11294 28
9036 11291 11295 28
9037 11296 11297 28
9038 11296 11298 28
9039 11296 11299 28
9040 11296 11300 28
9041 11301 11302 28
9042 11301 11303 28
9043 11301 11304 28
9044 11301 11305 28
9045 11306 11307 28
9046 11306 11308 28
9047 11306 11309 28
9048 11306 11310 28
9049 11311 11312 28
9050 11311 11313 28
9051 11311 11314 28
9052 11311 11315 28
9053 11316 11317 28
9054 11316 11318 28
9055 11316 11319 28
9056 11316 11320 28
9057 11321 11322 28
9058 11321 11323 28
9059 11321 11324 28
9060 11321 11325 28
9061 11326 11327 28
9062 11326 11328 28
9063 11326 11329 28
9064 11326 11330 28
9065 11331 11332 28
9066 11331 11333 28
9067 11331 11334 28
9068 11331 11335 28
9069 11336 11337 28
9070 11336 11338 28
9071 11336 11339 28
9072 11336 11340 28
9073 11341 11342 28
9074 11341 11343 28
9075 11341 11344 28
9076 11341 11345 28
9077 11346 11347 28
9078 11346 11348 28
9079 11346 11349 28
9080 11346 11350 28
9081 11351 11352 28
9082 11351 11353 28
9083 11351 11354 28
9084 11351 11355 28
9085 11356 11357 28
9086 11356 11358 28
9087 11356 11359 28
9088 11356 11360 28
9089 11361 11362 28
9090 11361 11363 28
9091 11361 11364 28
9092 11361 11365 28
9093 11366 11367 28
9094 11366 11368 28
9095 11366 11369 28
9096 11366 11370 28
9097 11371 11372 28
9098 11371 11373 28
9099 11371 11374 28
9100 11371 11375 28
9101 11376 11377 28
9102 11376 11378 28
9103 11376 11379 28
9104 11376 11380 28
9105 11381 11382 28
9106 11381 11383 28
9107 11381 11384 28
9108 11381 11385 28
9109 11386 11387 28
9110 11386 11388 28
9111 11386 11389 28
9112 11386 11390 28
9113 11391 11392 28
9114 11391 11393 28
9115 11391 11394 28
9116 11391 11395 28
9117 11396 11397 28
9118 11396 11398 28
9119 11396 11399 28
9120 11396 11400 28
9121 11401 11402 28
9122 11401 11403 28
9123 11401 11404 28
9124 11401 11405 28
9125 11406 11407 28
9126 11406 11408 28
9127 11406 11409 28
9128 11406 11410 28
9129 11411 11412 28
9130 11411 11413 28
9131 11411 11414 28
9132 11411 11415 28
9133 11416 11417 28
9134 11416 11418 28
9135 11416 11419 28
9136 11416 11420 28
9137 11421 11422 28
9138 11421 11423 28
9139 11421 11424 28
9140 11421 11425 28
9141 11426 11427 28
9142 11426 11428 28
9143 11426 11429 28
9144 11426 11430 28
9145 11431 11432 28
9146 11431 11433 28
9147 11431 11434 28
9148 11431 11435 28
9149 11436 11437 28
9150 11436 11438 28
9151 11436 11439 28
9152 11436 11440 28
9153 11441 11442 28
9154 11441 11443 28
9155 11441 11444 28
9156 11441 11445 28
9157 11446 11447 28
9158 11446 11448 28
9159 11446 11449 28
9160 11446 11450 28
9161 11451 11452 28
9162 11451 11453 28
9163 11451 11454 28
9164 11451 11455 28
9165 11456 11457 28
9166 11456 11458 28
9167 11456 11459 28
9168 11456 11460 28
9169 11461 11462 28
9170 11461 11463 28
9171 11461 11464 28
9172 11461 11465 28
9173 11466 11467 28
9174 11466 11468 28
9175 11466 11469 28
9176 11466 11470 28
9177 11471 11472 28
9178 11471 11473 28
9179 11471 11474 28
9180 11471 11475 28
9181 11476 11477 28
9182 11476 11478 28
9183 11476 11479 28
9184 11476 11480 28
9185 11481 11482 28
9186 11481 11483 28
9187 11481 11484 28
9188 11481 11485 28
9189 11486 11487 28
9190 11486 11488 28
9191 11486 11489 28
9192 11486 11490 28
9193 11491 11492 28
9194 11491 11493 28
9195 11491 11494 28
9196 11491 11495 28
9197 11496 11497 28
9198 11496 11498 28
9199 11496 11499 28
9200 11496 11500 28
9201 11501 11502 28
9202 11501 11503 28
9203 11501 11504 28
9204 11501 11505 28
9205 11506 11507 28
9206 11506 11508 28
9207 11506 11509 28
9208 11506 11510 28
9209 11511 11512 28
9210 11511 11513 28
9211 11511 11514 28
9212 11511 11515 28
9213 11516 11517 28
9214 11516 11518 28
9215 11516 11519 28
9216 11516 11520 28
9217 11521 11522 28
9218 11521 11523 28
9219 11521 11524 28
9220 11521 11525 28
9221 11526 11527 28
9222 11526 11528 28
9223 11526 11529 28
9224 11526 11530 28
9225 11531 11532 28
9226 11531 11533 28
9227 11531 11534 28
9228 11531 11535 28
9229 11536 11537 28
9230 11536 11538 28
9231 11536 11539 28
9232 11536 11540 28
9233 11541 11542 28
9234 11541 11543 28
9235 11541 11544 28
9236 11541 11545 28
9237 11546 11547 28
9238 11546 11548 28
9239 11546 11549 28
9240 11546 11550 28
9241 11551 11552 28
9242 11551 11553 28
9243 11551 11554 28
9244 11551 11555 28
9245 11556 11557 28
9246 11556 11558 28
9247 11556 11559 28
9248 11556 11560 28
9249 11561 11562 28
9250 11561 11563 28
9251 11561 11564 28
9252 11561 11565 28
9253 11566 11567 28
9254 11566 11568 28
9255 11566 11569 28
9256 11566 11570 28
9257 11571 11572 28
9258 11571 11573 28
9259 11571 11574 28
9260 11571 11575 28
9261 11576 11577 28
9262 11576 11578 28
9263 11576 11579 28
9264 11576 11580 28
9265 11581 11582 28
9266 11581 11583 28
9267 11581 11584 28
9268 11581 11585 28
9269 11586 11587 28
9270 11586 11588 28
9271 11586 11589 28
9272 11586 11590 28
9273 11591 11592 28
9274 11591 11593 28
9275 11591 11594 28
9276 11591 11595 28
9277 11596 11597 28
9278 11596 11598 28
9279 11596 11599 28
9280 11596 11600 28
9281 11601 11602 28
9282 11601 11603 28
9283 11601 11604 28
9284 11601 11605 28
9285 11606 11607 28
9286 11606 11608 28
9287 11606 11609 28
9288 11606 11610 28
9289 11611 11612 28
9290 11611 11613 28
9291 11611 11614 28
9292 11611 11615 28
9293 11616 11617 28
9294 11616 11618 28
9295 11616 11619 28
9296 11616 11620 28
9297 11621 11622 28
9298 11621 11623 28
9299 11621 11624 28
9300 11621 11625 28
9301 11626 11627 28
9302 11626 11628 28
9303 11626 11629 28
9304 11626 11630 28
9305 11631 11632 28
9306 11631 11633 28
9307 11631 11634 28
9308 11631 11635 28
9309 11636 11637 28
9310 11636 11638 28
9311 11636 11639 28
9312 11636 11640 28
9313 11641 11642 28
9314 11641 11643 28
9315 11641 11644 28
9316 11641 11645 28
9317 11646 11647 28
9318 11646 11648 28
9319 11646 11649 28
9320 11646 11650 28
9321 11651 11652 28
9322 11651 11653 28
9323 11651 11654 28
9324 11651 11655 28
9325 11656 11657 28
9326 11656 11658 28
9327 11656 11659 28
9328 11656 11660 28
9329 11661 11662 28
9330 11661 11663 28
9331 11661 11664 28
9332 11661 11665 28
9333 11666 11667 28
9334 11666 11668 28
9335 11666 11669 28
9336 11666 11670 28
9337 11671 11672 28
9338 11671 11673 28
9339 11671 11674 28
9340 11671 11675 28
9341 11676 11677 28
9342 11676 11678 28
9343 11676 11679 28
9344 11676 11680 28
9345 11681 11682 28
9346 11681 11683 28
9347 11681 11684 28
9348 11681 11685 28
9349 11686 11687 28
9350 11686 11688 28
9351 11686 11689 28
9352 11686 11690 28
9353 11691 11692 28
9354 11691 11693 28
9355 11691 11694 28
9356 11691 11695 28
9357 11696 11697 28
9358 11696 11698 28
9359 11696 11699 28
9360 11696 11700 28
9361 11701 11702 28
9362 11701 11703 28
9363 11701 11704 28
9364 11701 11705 28
9365 11706 11707 28
9366 11706 11708 28
9367 11706 11709 28
9368 11706 11710 28
9369 11711 11712 28
9370 11711 11713 28
9371 11711 11714 28
9372 11711 11715 28
9373 11716 11717 28
9374 11716 11718 28
9375 11716 11719 28
9376 11716 11720 28
9377 11721 11722 28
9378 11721 11723 28
9379 11721 11724 28
9380 11721 11725 28
9381 11726 11727 28
9382 11726 11728 28
9383 11726 11729 28
9384 11726 11730 28
9385 11731 11732 28
9386 11731 11733 28
9387 11731 11734 28
9388 11731 11735 28
9389 11736 11737 28
9390 11736 11738 28
9391 11736 11739 28
9392 11736 11740 28
9393 11741 11742 28
9394 11741 11743 28
9395 11741 11744 28
9396 11741 11745 28
9397 11746 11747 28
9398 11746 11748 28
9399 11746 11749 28
9400 11746 11750 28
9401 11751 11752 28
9402 11751 11753 28
9403 11751 11754 28
9404 11751 11755 28
9405 11756 11757 28
9406 11756 11758 28
9407 11756 11759 28
9408 11756 11760 28
9409 11761 11762 28
9410 11761 11763 28
9411 11761 11764 28
9412 11761 11765 28
9413 11766 11767 28
9414 11766 11768 28
9415 11766 11769 28
9416 11766 11770 28
9417 11771 11772 28
9418 11771 11773 28
9419 11771 11774 28
9420 11771 11775 28
9421 11776 11777 28
9422 11776 11778 28
9423 11776 11779 28
9424 11776 11780 28
9425 11781 11782 28
9426 11781 11783 28
9427 11781 11784 28
9428 11781 11785 28
9429 11786 11787 28
9430 11786 11788 28
9431 11786 11789 28
9432 11786 11790 28
9433 11791 11792 28
9434 11791 11793 28
9435 11791 11794 28
9436 11791 11795 28
9437 11796 11797 28
9438 11796 11798 28
9439 11796 11799 28
9440 11796 11800 28
9441 11801 11802 28
9442 11801 11803 28
9443 11801 11804 28
9444 11801 11805 28
9445 11806 11807 28
9446 11806 11808 28
9447 11806 11809 28
9448 11806 11810 28
9449 11811 11812 28
9450 11811 11813 28
9451 11811 11814 28
9452 11811 11815 28
9453 11816 11817 28
9454 11816 11818 28
9455 11816 11819 28
9456 11816 11820 28
9457 11821 11822 28
9458 11821 11823 28
9459 11821 11824 28
9460 11821 11825 28
9461 11826 11827 28
9462 11826 11828 28
9463 11826 11829 28
9464 11826 11830 28
9465 11831 11832 28
9466 11831 11833 28
9467 11831 11834 28
9468 11831 11835 28
9469 11836 11837 28
9470 11836 11838 28
9471 11836 11839 28
9472 11836 11840 28
9473 11841 11842 28
9474 11841 11843 28
9475 11841 11844 28
9476 11841 11845 28
9477 11846 11847 28
9478 11846 11848 28
9479 11846 11849 28
9480 11846 11850 28
9481 11851 11852 28
9482 11851 11853 28
9483 11851 11854 28
9484 11851 11855 28
9485 11856 11857 28
9486 11856 11858 28
9487 11856 11859 28
9488 11856 11860 28
9489 11861 11862 28
9490 11861 11863 28
9491 11861 11864 28
9492 11861 11865 28
9493 11866 11867 28
9494 11866 11868 28
9495 11866 11869 28
9496 11866 11870 28
9497 11871 11872 28
9498 11871 11873 28
9499 11871 11874 28
9500 11871 11875 28
9501 11876 11877 28
9502 11876 11878 28
9503 11876 11879 28
9504 11876 11880 28
9505 11881 11882 28
9506 11881 11883 28
9507 11881 11884 28
9508 11881 11885 28
9509 11886 11887 28
9510 11886 11888 28
9511 11886 11889 28
9512 11886 11890 28
9513 11891 11892 28
9514 11891 11893 28
9515 11891 11894 28
9516 11891 11895 28
9517 11896 11897 28
9518 11896 11898 28
9519 11896 11899 28
9520 11896 11900 28
9521 11901 11902 28
9522 11901 11903 28
9523 11901 11904 28
9524 11901 11905 28
9525 11906 11907 28
9526 11906 11908 28
9527 11906 11909 28
9528 11906 11910 28
9529 11911 11912 28
9530 11911 11913 28
9531 11911 11914 28
9532 11911 11915 28
9533 11916 11917 28
9534 11916 11918 28
9535 11916 11919 28
9536 11916 11920 28
9537 11921 11922 28
9538 11921 11923 28
9539 11921 11924 28
9540 11921 11925 28
9541 11926 11927 28
9542 11926 11928 28
9543 11926 11929 28
9544 11926 11930 28
9545 11931 11932 28
9546 11931 11933 28
9547 11931 11934 28
9548 11931 11935 28
9549 11936 11937 28
9550 11936 11938 28
9551 11936 11939 28
9552 11936 11940 28
9553 11941 11942 28
9554 11941 11943 28
9555 11941 11944 28
9556 11941 11945 28
9557 11946 11947 28
9558 11946 11948 28
9559 11946 11949 28
9560 11946 11950 28
9561 11951 11952 28
9562 11951 11953 28
9563 11951 11954 28
9564 11951 11955 28
9565 11956 11957 28
9566 11956 11958 28
9567 11956 11959 28
9568 11956 11960 28
9569 11961 11962 28
9570 11961 11963 28
9571 11961 11964 28
9572 11961 11965 28
9573 11966 11967 28
9574 11966 11968 28
9575 11966 11969 28
9576 11966 11970 28
9577 11971 11972 28
9578 11971 11973 28
9579 11971 11974 28
9580 11971 11975 28
9581 11976 11977 28
9582 11976 11978 28
9583 11976 11979 28
9584 11976 11980 28
9585 11981 11982 28
9586 11981 11983 28
9587 11981 11984 28
9588 11981 11985 28
9589 11986 11987 28
9590 11986 11988 28
9591 11986 11989 28
9592 11986 11990 28
9593 11991 11992 28
9594 11991 11993 28
9595 11991 11994 28
9596 11991 11995 28
9597 11996 11997 28
9598 11996 11998 28
9599 11996 11999 28
9600 11996 12000 28
9601 12001 12002 28
9602 12001 12003 28
9603 12001 12004 28
9604 12001 12005 28
9605 12006 12007 28
9606 12006 12008 28
9607 12006 12009 28
9608 12006 12010 28
9609 12011 12012 28
9610 12011 12013 28
9611 12011 12014 28
9612 12011 12015 28
9613 12016 12017 28
9614 12016 12018 28
9615 12016 12019 28
9616 12016 12020 28
9617 12021 12022 28
9618 12021 12023 28
9619 12021 12024 28
9620 12021 12025 28
9621 12026 12027 28
9622 12026 12028 28
9623 12026 12029 28
9624 12026 12030 28
9625 12031 12032 28
9626 12031 12033 28
9627 12031 12034 28
9628 12031 12035 28
9629 12036 12037 28
9630 12036 12038 28
9631 12036 12039 28
9632 12036 12040 28
9633 12041 12042 28
9634 12041 12043 28
9635 12041 12044 28
9636 12041 12045 28
9637 12046 12047 28
9638 12046 12048 28
9639 12046 12049 28
9640 12046 12050 28
9641 12051 12052 28
9642 12051 12053 28
9643 12051 12054 28
9644 12051 12055 28
9645 12056 12057 28
9646 12056 12058 28
9647 12056 12059 28
9648 12056 12060 28
9649 12061 12062 28
9650 12061 12063 28
9651 12061 12064 28
9652 12061 12065 28
9653 12066 12067 28
9654 12066 12068 28
9655 12066 12069 28
9656 12066 12070 28
9657 12071 12072 28
9658 12071 12073 28
9659 12071 12074 28
9660 12071 12075 28
9661 12076 12077 28
9662 12076 12078 28
9663 12076 12079 28
9664 12076 12080 28
9665 12081 12082 28
9666 12081 12083 28
9667 12081 12084 28
9668 12081 12085 28
9669 12086 12087 28
9670 12086 12088 28
9671 12086 12089 28
9672 12086 12090 28
9673 12091 12092 28
9674 12091 12093 28
9675 12091 12094 28
9676 12091 12095 28
9677 12096 12097 28
9678 12096 12098 28
9679 12096 12099 28
9680 12096 12100 28
9681 12101 12102 28
9682 12101 12103 28
9683 12101 12104 28
9684 12101 12105 28
9685 12106 12107 28
9686 12106 12108 28
9687 12106 12109 28
9688 12106 12110 28
9689 12111 12112 28
9690 12111 12113 28
9691 12111 12114 28
9692 12111 12115 28
9693 12116 12117 28
9694 12116 12118 28
9695 12116 12119 28
9696 12116 12120 28
9697 12121 12122 28
9698 12121 12123 28
9699 12121 12124 28
9700 12121 12125 28
9701 12126 12127 28
9702 12126 12128 28
9703 12126 12129 28
9704 12126 12130 28
9705 12131 12132 28
9706 12131 12133 28
9707 12131 12134 28
9708 12131 12135 28
9709 12136 12137 28
9710 12136 12138 28
9711 12136 12139 28
9712 12136 12140 28
9713 12141 12142 28
9714 12141 12143 28
9715 12141 12144 28
9716 12141 12145 28
9717 12146 12147 28
9718 12146 12148 28
9719 12146 12149 28
9720 12146 12150 28
9721 12151 12152 28
9722 12151 12153 28
9723 12151 12154 28
9724 12151 12155 28
9725 12156 12157 28
9726 12156 12158 28
9727 12156 12159 28
9728 12156 12160 28
9729 12161 12162 28
9730 12161 12163 28
9731 12161 12164 28
9732 12161 12165 28
9733 12166 12167 28
9734 12166 12168 28
9735 12166 12169 28
9736 12166 12170 28
9737 12171 12172 28
9738 12171 12173 28
9739 12171 12174 28
9740 12171 12175 28
9741 12176 12177 28
9742 12176 12178 28
9743 12176 12179 28
9744 12176 12180 28
9745 12181 12182 28
9746 12181 12183 28
9747 12181 12184 28
9748 12181 12185 28
9749 12186 12187 28
9750 12186 12188 28
9751 12186 12189 28
9752 12186 12190 28
9753 12191 12192 28
9754 12191 12193 28
9755 12191 12194 28
9756 12191 12195 28
9757 12196 12197 28
9758 12196 12198 28
9759 12196 12199 28
9760 12196 12200 28
9761 12201 12202 28
9762 12201 12203 28
9763 12201 12204 28
9764 12201 12205 28
9765 12206 12207 28
9766 12206 12208 28
9767 12206 12209 28
9768 12206 12210 28
9769 12211 12212 28
9770 12211 12213 28
9771 12211 12214 28
9772 12211 12215 28
9773 12216 12217 28
9774 12216 12218 28
9775 12216 12219 28
9776 12216 12220 28
9777 12221 12222 28
9778 12221 12223 28
9779 12221 12224 28
9780 12221 12225 28
9781 12226 12227 28
9782 12226 12228 28
9783 12226 12229 28
9784 12226 12230 28
9785 12231 12232 28
9786 12231 12233 28
9787 12231 12234 28
9788 12231 12235 28
9789 12236 12237 28
9790 12236 12238 28
9791 12236 12239 28
9792 12236 12240 28
9793 12241 12242 28
9794 12241 12243 28
9795 12241 12244 28
9796 12241 12245 28
9797 12246 12247 28
9798 12246 12248 28
9799 12246 12249 28
9800 12246 12250 28
9801 12251 12252 28
9802 12251 12253 28
9803 12251 12254 28
9804 12251 12255 28
9805 12256 12257 28
9806 12256 12258 28
9807 12256 12259 28
9808 12256 12260 28
9809 12261 12262 28
9810 12261 12263 28
9811 12261 12264 28
9812 12261 12265 28
9813 12266 12267 28
9814 12266 12268 28
9815 12266 12269 28
9816 12266 12270 28
9817 12271 12272 28
9818 12271 12273 28
9819 12271 12274 28
9820 12271 12275 28
9821 12276 12277 28
9822 12276 12278 28
9823 12276 12279 28
9824 12276 12280 28
9825 12281 12282 28
9826 12281 12283 28
9827 12281 12284 28
9828 12281 12285 28
9829 12286 12287 28
9830 12286 12288 28
9831 12286 12289 28
9832 12286 12290 28
9833 12291 12292 28
9834 12291 12293 28
9835 12291 12294 28
9836 12291 12295 28
9837 12296 12297 28
9838 12296 12298 28
9839 12296 12299 28
9840 12296 12300 28
9841 12301 12302 28
9842 12301 12303 28
9843 12301 12304 28
9844 12301 12305 28
9845 12306 12307 28
9846 12306 12308 28
9847 12306 12309 28
9848 12306 12310 28
9849 12311 12312 28
9850 12311 12313 28
9851 12311 12314 28
9852 12311 12315 28
9853 12316 12317 28
9854 12316 12318 28
9855 12316 12319 28
9856 12316 12320 28
9857 12321 12322 28
9858 12321 12323 28
9859 12321 12324 28
9860 12321 12325 28
9861 12326 12327 28
9862 12326 12328 28
9863 12326 12329 28
9864 12326 12330 28
9865 12331 12332 28
9866 12331 12333 28
9867 12331 12334 28
9868 12331 12335 28
9869 12336 12337 28
9870 12336 12338 28
9871 12336 12339 28
9872 12336 12340 28
9873 12341 12342 28
9874 12341 12343 28
9875 12341 12344 28
9876 12341 12345 28
9877 12346 12347 28
9878 12346 12348 28
9879 12346 12349 28
9880 12346 12350 28
9881 12351 12352 28
9882 12351 12353 28
9883 12351 12354 28
9884 12351 12355 28
9885 12356 12357 28
9886 12356 12358 28
9887 12356 12359 28
9888 12356 12360 28
9889 12361 12362 28
9890 12361 12363 28
9891 12361 12364 28
9892 12361 12365 28
9893 12366 12367 28
9894 12366 12368 28
9895 12366 12369 28
9896 12366 12370 28
9897 12371 12372 28
9898 12371 12373 28
9899 12371 12374 28
9900 12371 12375 28
9901 12376 12377 28
9902 12376 12378 28
9903 12376 12379 28
9904 12376 12380 28
9905 12381 12382 28
9906 12381 12383 28
9907 12381 12384 28
9908 12381 12385 28
9909 12386 12387 28
9910 12386 12388 28
9911 12386 12389 28
9912 12386 12390 28
9913 12391 12392 28
9914 12391 12393 28
9915 12391 12394 28
9916 12391 12395 28
9917 12396 12397 28
9918 12396 12398 28
9919 12396 12399 28
9920 12396 12400 28
9921 12401 12402 28
9922 12401 12403 28
9923 12401 12404 28
9924 12401 12405 28
9925 12406 12407 28
9926 12406 12408 28
9927 12406 12409 28
9928 12406 12410 28
9929 12411 12412 28
9930 12411 12413 28
9931 12411 12414 28
9932 12411 12415 28
9933 12416 12417 28
9934 12416 12418 28
9935 12416 12419 28
9936 12416 12420 28
9937 12421 12422 28
9938 12421 12423 28
9939 12421 12424 28
9940 12421 12425 28
9941 12426 12427 28
9942 12426 12428 28
9943 12426 12429 28
9944 12426 12430 28
9945 12431 12432 28
9946 12431 12433 28
9947 12431 12434 28
9948 12431 12435 28
9949 12436 12437 28
9950 12436 12438 28
9951 12436 12439 28
9952 12436 12440 28
9953 12441 12442 28
9954 12441 12443 28
9955 12441 12444 28
9956 12441 12445 28
9957 12446 12447 28
9958 12446 12448 28
9959 12446 12449 28
9960 12446 12450 28
9961 12451 12452 28
9962 12451 12453 28
9963 12451 12454 28
9964 12451 12455 28
9965 12456 12457 28
9966 12456 12458 28
9967 12456 12459 28
9968 12456 12460 28
9969 12461 12462 28
9970 12461 12463 28
9971 12461 12464 28
9972 12461 12465 28
9973 12466 12467 28
9974 12466 12468 28
9975 12466 12469 28
9976 12466 12470 28
9977 12471 12472 28
9978 12471 12473 28
9979 12471 12474 28
9980 12471 12475 28
9981 12476 12477 28
9982 12476 12478 28
9983 12476 12479 28
9984 12476 12480 28
9985 12481 12482 28
9986 12481 12483 28
9987 12481 12484 28
9988 12481 12485 28
9989 12486 12487 28
9990 12486 12488 28
9991 12486 12489 28
9992 12486 12490 28
9993 12491 12492 28
9994 12491 12493 28
9995 12491 12494 28
9996 12491 12495 28
9997 12496 12497 28
9998 12496 12498 28
9999 12496 12499 28
10000 12496 12500 28
10001 12501 12502 28
10002 12501 12503 28
10003 12501 12504 28
10004 12501 12505 28
10005 12506 12507 28
10006 12506 12508 28
10007 12506 12509 28
10008 12506 12510 28
10009 12511 12512 28
10010 12511 12513 28
10011 12511 12514 28
10012 12511 12515 28
10013 12516 12517 28
10014 12516 12518 28
10015 12516 12519 28
10016 12516 12520 28
10017 12521 12522 28
10018 12521 12523 28
10019 12521 12524 28
10020 12521 12525 28
10021 12526 12527 28
10022 12526 12528 28
10023 12526 12529 28
10024 12526 12530 28
10025 12531 12532 28
10026 12531 12533 28
10027 12531 12534 28
10028 12531 12535 28
10029 12536 12537 28
10030 12536 12538 28
10031 12536 12539 28
10032 12536 12540 28
10033 12541 12542 28
10034 12541 12543 28
10035 12541 12544 28
10036 12541 12545 28
10037 12546 12547 28
10038 12546 12548 28
10039 12546 12549 28
10040 12546 12550 28
10041 12551 12552 28
10042 12551 12553 28
10043 12551 12554 28
10044 12551 12555 28
10045 12556 12557 28
10046 12556 12558 28
10047 12556 12559 28
10048 12556 12560 28
10049 12561 12562 28
10050 12561 12563 28
10051 12561 12564 28
10052 12561 12565 28
10053 12566 12567 28
10054 12566 12568 28
10055 12566 12569 28
10056 12566 12570 28
10057 12571 12572 28
10058 12571 12573 28
10059 12571 12574 28
10060 12571 12575 28
10061 12576 12577 28
10062 12576 12578 28
10063 12576 12579 28
10064 12576 12580 28
10065 12581 12582 28
10066 12581 12583 28
10067 12581 12584 28
10068 12581 12585 28
10069 12586 12587 28
10070 12586 12588 28
10071 12586 12589 28
10072 12586 12590 28
10073 12591 12592 28
10074 12591 12593 28
10075 12591 12594 28
10076 12591 12595 28
10077 12596 12597 28
10078 12596 12598 28
10079 12596 12599 28
10080 12596 12600 28
10081 12601 12602 28
10082 12601 12603 28
10083 12601 12604 28
10084 12601 12605 28
10085 12606 12607 28
10086 12606 12608 28
10087 12606 12609 28
10088 12606 12610 28
10089 12611 12612 28
10090 12611 12613 28
10091 12611 12614 28
10092 12611 12615 28
10093 12616 12617 28
10094 12616 12618 28
10095 12616 12619 28
10096 12616 12620 28
10097 12621 12622 28
10098 12621 12623 28
10099 12621 12624 28
10100 12621 12625 28
10101 12626 12627 28
10102 12626 12628 28
10103 12626 12629 28
10104 12626 12630 28
10105 12631 12632 28
10106 12631 12633 28
10107 12631 12634 28
10108 12631 12635 28
10109 12636 12637 28
10110 12636 12638 28
10111 12636 12639 28
10112 12636 12640 28
10113 12641 12642 28
10114 12641 12643 28
10115 12641 12644 28
10116 12641 12645 28
10117 12646 12647 28
10118 12646 12648 28
10119 12646 12649 28
10120 12646 12650 28
10121 12651 12652 28
10122 12651 12653 28
10123 12651 12654 28
10124 12651 12655 28
10125 12656 12657 28
10126 12656 12658 28
10127 12656 12659 28
10128 12656 12660 28
10129 12661 12662 28
10130 12661 12663 28
10131 12661 12664 28
10132 12661 12665 28
10133 12666 12667 28
10134 12666 12668 28
10135 12666 12669 28
10136 12666 12670 28
10137 12671 12672 28
10138 12671 12673 28
10139 12671 12674 28
10140 12671 12675 28
10141 12676 12677 28
10142 12676 12678 28
10143 12676 12679 28
10144 12676 12680 28
10145 12681 12682 28
10146 12681 12683 28
10147 12681 12684 28
10148 12681 12685 28
10149 12686 12687 28
10150 12686 12688 28
10151 12686 12689 28
10152 12686 12690 28
10153 12691 12692 28
10154 12691 12693 28
10155 12691 12694 28
10156 12691 12695 28
10157 12696 12697 28
10158 12696 12698 28
10159 12696 12699 28
10160 12696 12700 28
10161 12701 12702 28
10162 12701 12703 28
10163 12701 12704 28
10164 12701 12705 28
10165 12706 12707 28
10166 12706 12708 28
10167 12706 12709 28
10168 12706 12710 28
10169 12711 12712 28
10170 12711 12713 28
10171 12711 12714 28
10172 12711 12715 28
10173 12716 12717 28
10174 12716 12718 28
10175 12716 12719 28
10176 12716 12720 28
10177 12721 12722 28
10178 12721 12723 28
10179 12721 12724 28
10180 12721 12725 28
10181 12726 12727 28
10182 12726 12728 28
10183 12726 12729 28
10184 12726 12730 28
10185 12731 12732 28
10186 12731 12733 28
10187 12731 12734 28
10188 12731 12735 28
10189 12736 12737 28
10190 12736 12738 28
10191 12736 12739 28
10192 12736 12740 28
10193 12741 12742 28
10194 12741 12743 28
10195 12741 12744 28
10196 12741 12745 28
10197 12746 12747 28
10198 12746 12748 28
10199 12746 12749 28
10200 12746 12750 28
10201 12751 12752 28
10202 12751 12753 28
10203 12751 12754 28
10204 12751 12755 28
10205 12756 12757 28
10206 12756 12758 28
10207 12756 12759 28
10208 12756 12760 28
10209 12761 12762 28
10210 12761 12763 28
10211 12761 12764 28
10212 12761 12765 28
10213 12766 12767 28
10214 12766 12768 28
10215 12766 12769 28
10216 12766 12770 28
10217 12771 12772 28
10218 12771 12773 28
10219 12771 12774 28
10220 12771 12775 28
10221 12776 12777 28
10222 12776 12778 28
10223 12776 12779 28
10224 12776 12780 28
10225 12781 12782 28
10226 12781 12783 28
10227 12781 12784 28
10228 12781 12785 28
10229 12786 12787 28
10230 12786 12788 28
10231 12786 12789 28
10232 12786 12790 28
10233 12791 12792 28
10234 12791 12793 28
10235 12791 12794 28
10236 12791 12795 28
10237 12796 12797 28
10238 12796 12798 28
10239 12796 12799 28
10240 12796 12800 28
10241 12801 12802 28
10242 12801 12803 28
10243 12801 12804 28
10244 12801 12805 28
10245 12806 12807 28
10246 12806 12808 28
10247 12806 12809 28
10248 12806 12810 28
10249 12811 12812 28
10250 12811 12813 28
10251 12811 12814 28
10252 12811 12815 28
10253 12816 12817 28
10254 12816 12818 28
10255 12816 12819 28
10256 12816 12820 28
10257 12821 12822 28
10258 12821 12823 28
10259 12821 12824 28
10260 12821 12825 28
10261 12826 12827 28
10262 12826 12828 28
10263 12826 12829 28
10264 12826 12830 28
10265 12831 12832 28
10266 12831 12833 28
10267 12831 12834 28
10268 12831 12835 28
10269 12836 12837 28
10270 12836 12838 28
10271 12836 12839 28
10272 12836 12840 28
10273 12841 12842 28
10274 12841 12843 28
10275 12841 12844 28
10276 12841 12845 28
10277 12846 12847 28
10278 12846 12848 28
10279 12846 12849 28
10280 12846 12850 28
10281 12851 12852 28
10282 12851 12853 28
10283 12851 12854 28
10284 12851 12855 28
10285 12856 12857 28
10286 12856 12858 28
10287 12856 12859 28
10288 12856 12860 28
10289 12861 12862 28
10290 12861 12863 28
10291 12861 12864 28
10292 12861 12865 28
10293 12866 12867 28
10294 12866 12868 28
10295 12866 12869 28
10296 12866 12870 28
10297 12871 12872 28
10298 12871 12873 28
10299 12871 12874 28
10300 12871 12875 28
10301 12876 12877 28
10302 12876 12878 28
10303 12876 12879 28
10304 12876 12880 28
10305 12881 12882 28
10306 12881 12883 28
10307 12881 12884 28
10308 12881 12885 28
10309 12886 12887 28
10310 12886 12888 28
10311 12886 12889 28
10312 12886 12890 28
10313 12891 12892 28
10314 12891 12893 28
10315 12891 12894 28
10316 12891 12895 28
10317 12896 12897 28
10318 12896 12898 28
10319 12896 12899 28
10320 12896 12900 28
10321 12901 12902 28
10322 12901 12903 28
10323 12901 12904 28
10324 12901 12905 28
10325 12906 12907 28
10326 12906 12908 28
10327 12906 12909 28
10328 12906 12910 28
10329 12911 12912 28
10330 12911 12913 28
10331 12911 12914 28
10332 12911 12915 28
10333 12916 12917 28
10334 12916 12918 28
10335 12916 12919 28
10336 12916 12920 28
10337 12921 12922 28
10338 12921 12923 28
10339 12921 12924 28
10340 12921 12925 28
10341 12926 12927 28
10342 12926 12928 28
10343 12926 12929 28
10344 12926 12930 28
10345 12931 12932 28
10346 12931 12933 28
10347 12931 12934 28
10348 12931 12935 28
10349 12936 12937 28
10350 12936 12938 28
10351 12936 12939 28
10352 12936 12940 28
10353 12941 12942 28
10354 12941 12943 28
10355 12941 12944 28
10356 12941 12945 28
10357 12946 12947 28
10358 12946 12948 28
10359 12946 12949 28
10360 12946 12950 28
10361 12951 12952 28
10362 12951 12953 28
10363 12951 12954 28
10364 12951 12955 28
10365 12956 12957 28
10366 12956 12958 28
10367 12956 12959 28
10368 12956 12960 28
10369 12961 12962 28
10370 12961 12963 28
10371 12961 12964 28
10372 12961 12965 28
10373 12966 12967 28
10374 12966 12968 28
10375 12966 12969 28
10376 12966 12970 28
10377 12971 12972 28
10378 12971 12973 28
10379 12971 12974 28
10380 12971 12975 28
10381 12976 12977 28
10382 12976 12978 28
10383 12976 12979 28
10384 12976 12980 28
10385 12981 12982 28
10386 12981 12983 28
10387 12981 12984 28
10388 12981 12985 28
10389 12986 12987 28
10390 12986 12988 28
10391 12986 12989 28
10392 12986 12990 28
10393 12991 12992 28
10394 12991 12993 28
10395 12991 12994 28
10396 12991 12995 28
10397 12996 12997 28
10398 12996 12998 28
10399 12996 12999 28
10400 12996 13000 28
10401 13001 13002 28
10402 13001 13003 28
10403 13001 13004 28
10404 13001 13005 28
10405 13006 13007 28
10406 13006 13008 28
10407 13006 13009 28
10408 13006 13010 28
10409 13011 13012 28
10410 13011 13013 28
10411 13011 13014 28
10412 13011 13015 28
10413 13016 13017 28
10414 13016 13018 28
10415 13016 13019 28
10416 13016 13020 28
10417 13021 13022 28
10418 13021 13023 28
10419 13021 13024 28
10420 13021 13025 28
10421 13026 13027 28
10422 13026 13028 28
10423 13026 13029 28
10424 13026 13030 28
10425 13031 13032 28
10426 13031 13033 28
10427 13031 13034 28
10428 13031 13035 28
10429 13036 13037 28
10430 13036 13038 28
10431 13036 13039 28
10432 13036 13040 28
10433 13041 13042 28
10434 13041 13043 28
10435 13041 13044 28
10436 13041 13045 28
10437 13046 13047 28
10438 13046 13048 28
10439 13046 13049 28
10440 13046 13050 28
10441 13051 13052 28
10442 13051 13053 28
10443 13051 13054 28
10444 13051 13055 28
10445 13056 13057 28
10446 13056 13058 28
10447 13056 13059 28
10448 13056 13060 28
10449 13061 13062 28
10450 13061 13063 28
10451 13061 13064 28
10452 13061 13065 28
10453 13066 13067 28
10454 13066 13068 28
10455 13066 13069 28
10456 13066 13070 28
10457 13071 13072 28
10458 13071 13073 28
10459 13071 13074 28
10460 13071 13075 28
10461 13076 13077 28
10462 13076 13078 28
10463 13076 13079 28
10464 13076 13080 28
10465 13081 13082 28
10466 13081 13083 28
10467 13081 13084 28
10468 13081 13085 28
10469 13086 13087 28
10470 13086 13088 28
10471 13086 13089 28
10472 13086 13090 28
10473 13091 13092 28
10474 13091 13093 28
10475 13091 13094 28
10476 13091 13095 28
10477 13096 13097 28
10478 13096 13098 28
10479 13096 13099 28
10480 13096 13100 28
10481 13101 13102 28
10482 13101 13103 28
10483 13101 13104 28
10484 13101 13105 28
10485 13106 13107 28
10486 13106 13108 28
10487 13106 13109 28
10488 13106 13110 28
10489 13111 13112 28
10490 13111 13113 28
10491 13111 13114 28
10492 13111 13115 28
10493 13116 13117 28
10494 13116 13118 28
10495 13116 13119 28
10496 13116 13120 28
10497 13121 13122 28
10498 13121 13123 28
10499 13121 13124 28
10500 13121 13125 28
10501 13126 13127 28
10502 13126 13128 28
10503 13126 13129 28
10504 13126 13130 28
10505 13131 13132 28
10506 13131 13133 28
10507 13131 13134 28
10508 13131 13135 28
10509 13136 13137 28
10510 13136 13138 28
10511 13136 13139 28
10512 13136 13140 28
10513 13141 13142 28
10514 13141 13143 28
10515 13141 13144 28
10516 13141 13145 28
10517 13146 13147 28
10518 13146 13148 28
10519 13146 13149 28
10520 13146 13150 28
10521 13151 13152 28
10522 13151 13153 28
10523 13151 13154 28
10524 13151 13155 28
10525 13156 13157 28
10526 13156 13158 28
10527 13156 13159 28
10528 13156 13160 28
10529 13161 13162 28
10530 13161 13163 28
10531 13161 13164 28
10532 13161 13165 28
10533 13166 13167 28
10534 13166 13168 28
10535 13166 13169 28
10536 13166 13170 28
10537 13171 13172 28
10538 13171 13173 28
10539 13171 13174 28
10540 13171 13175 28
10541 13176 13177 28
10542 13176 13178 28
10543 13176 13179 28
10544 13176 13180 28
10545 13181 13182 28
10546 13181 13183 28
10547 13181 13184 28
10548 13181 13185 28
10549 13186 13187 28
10550 13186 13188 28
10551 13186 13189 28
10552 13186 13190 28
10553 13191 13192 28
10554 13191 13193 28
10555 13191 13194 28
10556 13191 13195 28
10557 13196 13197 28
10558 13196 13198 28
10559 13196 13199 28
10560 13196 13200 28
10561 13201 13202 28
10562 13201 13203 28
10563 13201 13204 28
10564 13201 13205 28
10565 13206 13207 28
10566 13206 13208 28
10567 13206 13209 28
10568 13206 13210 28
10569 13211 13212 28
10570 13211 13213 28
10571 13211 13214 28
10572 13211 13215 28
10573 13216 13217 28
10574 13216 13218 28
10575 13216 13219 28
10576 13216 13220 28
10577 13221 13222 28
10578 13221 13223 28
10579 13221 13224 28
10580 13221 13225 28
10581 13226 13227 28
10582 13226 13228 28
10583 13226 13229 28
10584 13226 13230 28
10585 13231 13232 28
10586 13231 13233 28
10587 13231 13234 28
10588 13231 13235 28
10589 13236 13237 28
10590 13236 13238 28
10591 13236 13239 28
10592 13236 13240 28
10593 13241 13242 28
10594 13241 13243 28
10595 13241 13244 28
10596 13241 13245 28
10597 13246 13247 28
10598 13246 13248 28
10599 13246 13249 28
10600 13246 13250 28
10601 13251 13252 28
10602 13251 13253 28
10603 13251 13254 28
10604 13251 13255 28
10605 13256 13257 28
10606 13256 13258 28
10607 13256 13259 28
10608 13256 13260 28
10609 13261 13262 28
10610 13261 13263 28
10611 13261 13264 28
10612 13261 13265 28
10613 13266 13267 28
10614 13266 13268 28
10615 13266 13269 28
10616 13266 13270 28
10617 13271 13272 28
10618 13271 13273 28
10619 13271 13274 28
10620 13271 13275 28
10621 13276 13277 28
10622 13276 13278 28
10623 13276 13279 28
10624 13276 13280 28
10625 13281 13282 28
10626 13281 13283 28
10627 13281 13284 28
10628 13281 13285 28
10629 13286 13287 28
10630 13286 13288 28
10631 13286 13289 28
10632 13286 13290 28
10633 13291 13292 28
10634 13291 13293 28
10635 13291 13294 28
10636 13291 13295 28
10637 13296 13297 28
10638 13296 13298 28
10639 13296 13299 28
10640 13296 13300 28
10641 13301 13302 28
10642 13301 13303 28
10643 13301 13304 28
10644 13301 13305 28
10645 13306 13307 28
10646 13306 13308 28
10647 13306 13309 28
10648 13306 13310 28
10649 13311 13312 28
10650 13311 13313 28
10651 13311 13314 28
10652 13311 13315 28
10653 13316 13317 28
10654 13316 13318 28
10655 13316 13319 28
10656 13316 13320 28
10657 13321 13322 28
10658 13321 13323 28
10659 13321 13324 28
10660 13321 13325 28
10661 13326 13327 28
10662 13326 13328 28
10663 13326 13329 28
10664 13326 13330 28
10665 13331 13332 28
10666 13331 13333 28
10667 13331 13334 28
10668 13331 13335 28
10669 13336 13337 28
10670 13336 13338 28
10671 13336 13339 28
10672 13336 13340 28
10673 13341 13342 28
10674 13341 13343 28
10675 13341 13344 28
10676 13341 13345 28
10677 13346 13347 28
10678 13346 13348 28
10679 13346 13349 28
10680 13346 13350 28
10681 13351 13352 28
10682 13351 13353 28
10683 13351 13354 28
10684 13351 13355 28
10685 13356 13357 28
10686 13356 13358 28
10687 13356 13359 28
10688 13356 13360 28
10689 13361 13362 28
10690 13361 13363 28
10691 13361 13364 28
10692 13361 13365 28
10693 13366 13367 28
10694 13366 13368 28
10695 13366 13369 28
10696 13366 13370 28
10697 13371 13372 28
10698 13371 13373 28
10699 13371 13374 28
10700 13371 13375 28
10701 13376 13377 28
10702 13376 13378 28
10703 13376 13379 28
10704 13376 13380 28
10705 13381 13382 28
10706 13381 13383 28
10707 13381 13384 28
10708 13381 13385 28
10709 13386 13387 28
10710 13386 13388 28
10711 13386 13389 28
10712 13386 13390 28
10713 13391 13392 28
10714 13391 13393 28
10715 13391 13394 28
10716 13391 13395 28
10717 13396 13397 28
10718 13396 13398 28
10719 13396 13399 28
10720 13396 13400 28
10721 13401 13402 28
10722 13401 13403 28
10723 13401 13404 28
10724 13401 13405 28
10725 13406 13407 28
10726 13406 13408 28
10727 13406 13409 28
10728 13406 13410 28
10729 13411 13412 28
10730 13411 13413 28
10731 13411 13414 28
10732 13411 13415 28
10733 13416 13417 28
10734 13416 13418 28
10735 13416 13419 28
10736 13416 13420 28
10737 13421 13422 28
10738 13421 13423 28
10739 13421 13424 28
10740 13421 13425 28
10741 13426 13427 28
10742 13426 13428 28
10743 13426 13429 28
10744 13426 13430 28
10745 13431 13432 28
10746 13431 13433 28
10747 13431 13434 28
10748 13431 13435 28
10749 13436 13437 28
10750 13436 13438 28
10751 13436 13439 28
10752 13436 13440 28
10753 13441 13442 28
10754 13441 13443 28
10755 13441 13444 28
10756 13441 13445 28
10757 13446 13447 28
10758 13446 13448 28
10759 13446 13449 28
10760 13446 13450 28
10761 13451 13452 28
10762 13451 13453 28
10763 13451 13454 28
10764 13451 13455 28
10765 13456 13457 28
10766 13456 13458 28
10767 13456 13459 28
10768 13456 13460 28
10769 13461 13462 28
10770 13461 13463 28
10771 13461 13464 28
10772 13461 13465 28
10773 13466 13467 28
10774 13466 13468 28
10775 13466 13469 28
10776 13466 13470 28
10777 13471 13472 28
10778 13471 13473 28
10779 13471 13474 28
10780 13471 13475 28
10781 13476 13477 28
10782 13476 13478 28
10783 13476 13479 28
10784 13476 13480 28
10785 13481 13482 28
10786 13481 13483 28
10787 13481 13484 28
10788 13481 13485 28
10789 13486 13487 28
10790 13486 13488 28
10791 13486 13489 28
10792 13486 13490 28
10793 13491 13492 28
10794 13491 13493 28
10795 13491 13494 28
10796 13491 13495 28
10797 13496 13497 28
10798 13496 13498 28
10799 13496 13499 28
10800 13496 13500 28
10801 13501 13502 28
10802 13501 13503 28
10803 13501 13504 28
10804 13501 13505 28
10805 13506 13507 28
10806 13506 13508 28
10807 13506 13509 28
10808 13506 13510 28
10809 13511 13512 28
10810 13511 13513 28
10811 13511 13514 28
10812 13511 13515 28
10813 13516 13517 28
10814 13516 13518 28
10815 13516 13519 28
10816 13516 13520 28
10817 13521 13522 28
10818 13521 13523 28
10819 13521 13524 28
10820 13521 13525 28
10821 13526 13527 28
10822 13526 13528 28
10823 13526 13529 28
10824 13526 13530 28
10825 13531 13532 28
10826 13531 13533 28
10827 13531 13534 28
10828 13531 13535 28
10829 13536 13537 28
10830 13536 13538 28
10831 13536 13539 28
10832 13536 13540 28
10833 13541 13542 28
10834 13541 13543 28
10835 13541 13544 28
10836 13541 13545 28
10837 13546 13547 28
10838 13546 13548 28
10839 13546 13549 28
10840 13546 13550 28
10841 13551 13552 28
10842 13551 13553 28
10843 13551 13554 28
10844 13551 13555 28
10845 13556 13557 28
10846 13556 13558 28
10847 13556 13559 28
10848 13556 13560 28
10849 13561 13562 28
10850 13561 13563 28
10851 13561 13564 28
10852 13561 13565 28
10853 13566 13567 28
10854 13566 13568 28
10855 13566 13569 28
10856 13566 13570 28
10857 13571 13572 28
10858 13571 13573 28
10859 13571 13574 28
10860 13571 13575 28
10861 13576 13577 28
10862 13576 13578 28
10863 13576 13579 28
10864 13576 13580 28
10865 13581 13582 28
10866 13581 13583 28
10867 13581 13584 28
10868 13581 13585 28
10869 13586 13587 28
10870 13586 13588 28
10871 13586 13589 28
10872 13586 13590 28
10873 13591 13592 28
10874 13591 13593 28
10875 13591 13594 28
10876 13591 13595 28
10877 13596 13597 28
10878 13596 13598 28
10879 13596 13599 28
10880 13596 13600 28
10881 13601 13602 28
10882 13601 13603 28
10883 13601 13604 28
10884 13601 13605 28
10885 13606 13607 28
10886 13606 13608 28
10887 13606 13609 28
10888 13606 13610 28
10889 13611 13612 28
10890 13611 13613 28
10891 13611 13614 28
10892 13611 13615 28
10893 13616 13617 28
10894 13616 13618 28
10895 13616 13619 28
10896 13616 13620 28
10897 13621 13622 28
10898 13621 13623 28
10899 13621 13624 28
10900 13621 13625 28
10901 13626 13627 28
10902 13626 13628 28
10903 13626 13629 28
10904 13626 13630 28
10905 13631 13632 28
10906 13631 13633 28
10907 13631 13634 28
10908 13631 13635 28
10909 13636 13637 28
10910 13636 13638 28
10911 13636 13639 28
10912 13636 13640 28
10913 13641 13642 28
10914 13641 13643 28
10915 13641 13644 28
10916 13641 13645 28
10917 13646 13647 28
10918 13646 13648 28
10919 13646 13649 28
10920 13646 13650 28
10921 13651 13652 28
10922 13651 13653 28
10923 13651 13654 28
10924 13651 13655 28
10925 13656 13657 28
10926 13656 13658 28
10927 13656 13659 28
10928 13656 13660 28
10929 13661 13662 28
10930 13661 13663 28
10931 13661 13664 28
10932 13661 13665 28
10933 13666 13667 28
10934 13666 13668 28
10935 13666 13669 28
10936 13666 13670 28
10937 13671 13672 28
10938 13671 13673 28
10939 13671 13674 28
10940 13671 13675 28
10941 13676 13677 28
10942 13676 13678 28
10943 13676 13679 28
10944 13676 13680 28
10945 13681 13682 28
10946 13681 13683 28
10947 13681 13684 28
10948 13681 13685 28
10949 13686 13687 28
10950 13686 13688 28
10951 13686 13689 28
10952 13686 13690 28
10953 13691 13692 28
10954 13691 13693 28
10955 13691 13694 28
10956 13691 13695 28
10957 13696 13697 28
10958 13696 13698 28
10959 13696 13699 28
10960 13696 13700 28
10961 13701 13702 28
10962 13701 13703 28
10963 13701 13704 28
10964 13701 13705 28
10965 13706 13707 28
10966 13706 13708 28
10967 13706 13709 28
10968 13706 13710 28
10969 13711 13712 28
10970 13711 13713 28
10971 13711 13714 28
10972 13711 13715 28
10973 13716 13717 28
10974 13716 13718 28
10975 13716 13719 28
10976 13716 13720 28
10977 13721 13722 28
10978 13721 13723 28
10979 13721 13724 28
10980 13721 13725 28
10981 13726 13727 28
10982 13726 13728 28
10983 13726 13729 28
10984 13726 13730 28
10985 13731 13732 28
10986 13731 13733 28
10987 13731 13734 28
10988 13731 13735 28
10989 13736 13737 28
10990 13736 13738 28
10991 13736 13739 28
10992 13736 13740 28
10993 13741 13742 28
10994 13741 13743 28
10995 13741 13744 28
10996 13741 13745 28
10997 13746 13747 28
10998 13746 13748 28
10999 13746 13749 28
11000 13746 13750 28
11001 13751 13752 28
11002 13751 13753 28
11003 13751 13754 28
11004 13751 13755 28
11005 13756 13757 28
11006 13756 13758 28
11007 13756 13759 28
11008 13756 13760 28
11009 13761 13762 28
11010 13761 13763 28
11011 13761 13764 28
11012 13761 13765 28
11013 13766 13767 28
11014 13766 13768 28
11015 13766 13769 28
11016 13766 13770 28
11017 13771 13772 28
11018 13771 13773 28
11019 13771 13774 28
11020 13771 13775 28
11021 13776 13777 28
11022 13776 13778 28
11023 13776 13779 28
11024 13776 13780 28
11025 13781 13782 28
11026 13781 13783 28
11027 13781 13784 28
11028 13781 13785 28
11029 13786 13787 28
11030 13786 13788 28
11031 13786 13789 28
11032 13786 13790 28
11033 13791 13792 28
11034 13791 13793 28
11035 13791 13794 28
11036 13791 13795 28
11037 13796 13797 28
11038 13796 13798 28
11039 13796 13799 28
11040 13796 13800 28
11041 13801 13802 28
11042 13801 13803 28
11043 13801 13804 28
11044 13801 13805 28
11045 13806 13807 28
11046 13806 13808 28
11047 13806 13809 28
11048 13806 13810 28
11049 13811 13812 28
11050 13811 13813 28
11051 13811 13814 28
11052 13811 13815 28
11053 13816 13817 28
11054 13816 13818 28
11055 13816 13819 28
11056 13816 13820 28
11057 13821 13822 28
11058 13821 13823 28
11059 13821 13824 28
11060 13821 13825 28
11061 13826 13827 28
11062 13826 13828 28
11063 13826 13829 28
11064 13826 13830 28
11065 13831 13832 28
11066 13831 13833 28
11067 13831 13834 28
11068 13831 13835 28
11069 13836 13837 28
11070 13836 13838 28
11071 13836 13839 28
11072 13836 13840 28
11073 13841 13842 28
11074 13841 13843 28
11075 13841 13844 28
11076 13841 13845 28
11077 13846 13847 28
11078 13846 13848 28
11079 13846 13849 28
11080 13846 13850 28
11081 13851 13852 28
11082 13851 13853 28
11083 13851 13854 28
11084 13851 13855 28
11085 13856 13857 28
11086 13856 13858 28
11087 13856 13859 28
11088 13856 13860 28
11089 13861 13862 28
11090 13861 13863 28
11091 13861 13864 28
11092 13861 13865 28
11093 13866 13867 28
11094 13866 13868 28
11095 13866 13869 28
11096 13866 13870 28
11097 13871 13872 28
11098 13871 13873 28
11099 13871 13874 28
11100 13871 13875 28
11101 13876 13877 28
11102 13876 13878 28
11103 13876 13879 28
11104 13876 13880 28
11105 13881 13882 28
11106 13881 13883 28
11107 13881 13884 28
11108 13881 13885 28
11109 13886 13887 28
11110 13886 13888 28
11111 13886 13889 28
11112 13886 13890 28
11113 13891 13892 28
11114 13891 13893 28
11115 13891 13894 28
11116 13891 13895 28
11117 13896 13897 28
11118 13896 13898 28
11119 13896 13899 28
11120 13896 13900 28
11121 13901 13902 28
11122 13901 13903 28
11123 13901 13904 28
11124 13901 13905 28
11125 13906 13907 28
11126 13906 13908 28
11127 13906 13909 28
11128 13906 13910 28
11129 13911 13912 28
11130 13911 13913 28
11131 13911 13914 28
11132 13911 13915 28
11133 13916 13917 28
11134 13916 13918 28
11135 13916 13919 28
11136 13916 13920 28
11137 13921 13922 28
11138 13921 13923 28
11139 13921 13924 28
11140 13921 13925 28
11141 13926 13927 28
11142 13926 13928 28
11143 13926 13929 28
11144 13926 13930 28
11145 13931 13932 28
11146 13931 13933 28
11147 13931 13934 28
11148 13931 13935 28
11149 13936 13937 28
11150 13936 13938 28
11151 13936 13939 28
11152 13936 13940 28
11153 13941 13942 28
11154 13941 13943 28
11155 13941 13944 28
11156 13941 13945 28
11157 13946 13947 28
11158 13946 13948 28
11159 13946 13949 28
11160 13946 13950 28
11161 13951 13952 28
11162 13951 13953 28
11163 13951 13954 28
11164 13951 13955 28
11165 13956 13957 28
11166 13956 13958 28
11167 13956 13959 28
11168 13956 13960 28
11169 13961 13962 28
11170 13961 13963 28
11171 13961 13964 28
11172 13961 13965 28
11173 13966 13967 28
11174 13966 13968 28
11175 13966 13969 28
11176 13966 13970 28
11177 13971 13972 28
11178 13971 13973 28
11179 13971 13974 28
11180 13971 13975 28
11181 13976 13977 28
11182 13976 13978 28
11183 13976 13979 28
11184 13976 13980 28
11185 13981 13982 28
11186 13981 13983 28
11187 13981 13984 28
11188 13981 13985 28
11189 13986 13987 28
11190 13986 13988 28
11191 13986 13989 28
11192 13986 13990 28
11193 13991 13992 28
11194 13991 13993 28
11195 13991 13994 28
11196 13991 13995 28
11197 13996 13997 28
11198 13996 13998 28
11199 13996 13999 28
11200 13996 14000 28
11201 14001 14002 28
11202 14001 14003 28
11203 14001 14004 28
11204 14001 14005 28
11205 14006 14007 28
11206 14006 14008 28
11207 14006 14009 28
11208 14006 14010 28
11209 14011 14012 28
11210 14011 14013 28
11211 14011 14014 28
11212 14011 14015 28
11213 14016 14017 28
11214 14016 14018 28
11215 14016 14019 28
11216 14016 14020 28
11217 14021 14022 28
11218 14021 14023 28
11219 14021 14024 28
11220 14021 14025 28
11221 14026 14027 28
11222 14026 14028 28
11223 14026 14029 28
11224 14026 14030 28
11225 14031 14032 28
11226 14031 14033 28
11227 14031 14034 28
11228 14031 14035 28
11229 14036 14037 28
11230 14036 14038 28
11231 14036 14039 28
11232 14036 14040 28
11233 14041 14042 28
11234 14041 14043 28
11235 14041 14044 28
11236 14041 14045 28
11237 14046 14047 28
11238 14046 14048 28
11239 14046 14049 28
11240 14046 14050 28
11241 14051 14052 28
11242 14051 14053 28
11243 14051 14054 28
11244 14051 14055 28
11245 14056 14057 28
11246 14056 14058 28
11247 14056 14059 28
11248 14056 14060 28
11249 14061 14062 28
11250 14061 14063 28
11251 14061 14064 28
11252 14061 14065 28
11253 14066 14067 28
11254 14066 14068 28
11255 14066 14069 28
11256 14066 14070 28
11257 14071 14072 28
11258 14071 14073 28
11259 14071 14074 28
11260 14071 14075 28
11261 14076 14077 28
11262 14076 14078 28
11263 14076 14079 28
11264 14076 14080 28
11265 14081 14082 28
11266 14081 14083 28
11267 14081 14084 28
11268 14081 14085 28
11269 14086 14087 28
11270 14086 14088 28
11271 14086 14089 28
11272 14086 14090 28
11273 14091 14092 28
11274 14091 14093 28
11275 14091 14094 28
11276 14091 14095 28
11277 14096 14097 28
11278 14096 14098 28
11279 14096 14099 28
11280 14096 14100 28
11281 14101 14102 28
11282 14101 14103 28
11283 14101 14104 28
11284 14101 14105 28
11285 14106 14107 28
11286 14106 14108 28
11287 14106 14109 28
11288 14106 14110 28
11289 14111 14112 28
11290 14111 14113 28
11291 14111 14114 28
11292 14111 14115 28
11293 14116 14117 28
11294 14116 14118 28
11295 14116 14119 28
11296 14116 14120 28
11297 14121 14122 28
11298 14121 14123 28
11299 14121 14124 28
11300 14121 14125 28
11301 14126 14127 28
11302 14126 14128 28
11303 14126 14129 28
11304 14126 14130 28
11305 14131 14132 28
11306 14131 14133 28
11307 14131 14134 28
11308 14131 14135 28
11309 14136 14137 28
11310 14136 14138 28
11311 14136 14139 28
11312 14136 14140 28
11313 14141 14142 28
11314 14141 14143 28
11315 14141 14144 28
11316 14141 14145 28
11317 14146 14147 28
11318 14146 14148 28
11319 14146 14149 28
11320 14146 14150 28
11321 14151 14152 28
11322 14151 14153 28
11323 14151 14154 28
11324 14151 14155 28
11325 14156 14157 28
11326 14156 14158 28
11327 14156 14159 28
11328 14156 14160 28
11329 14161 14162 28
11330 14161 14163 28
11331 14161 14164 28
11332 14161 14165 28
11333 14166 14167 28
11334 14166 14168 28
11335 14166 14169 28
11336 14166 14170 28
11337 14171 14172 28
11338 14171 14173 28
11339 14171 14174 28
11340 14171 14175 28
11341 14176 14177 28
11342 14176 14178 28
11343 14176 14179 28
11344 14176 14180 28
11345 14181 14182 28
11346 14181 14183 28
11347 14181 14184 28
11348 14181 14185 28
11349 14186 14187 28
11350 14186 14188 28
11351 14186 14189 28
11352 14186 14190 28
11353 14191 14192 28
11354 14191 14193 28
11355 14191 14194 28
11356 14191 14195 28
11357 14196 14197 28
11358 14196 14198 28
11359 14196 14199 28
11360 14196 14200 28
11361 14201 14202 28
11362 14201 14203 28
11363 14201 14204 28
11364 14201 14205 28
11365 14206 14207 28
11366 14206 14208 28
11367 14206 14209 28
11368 14206 14210 28
11369 14211 14212 28
11370 14211 14213 28
11371 14211 14214 28
11372 14211 14215 28
11373 14216 14217 28
11374 14216 14218 28
11375 14216 14219 28
11376 14216 14220 28
11377 14221 14222 28
11378 14221 14223 28
11379 14221 14224 28
11380 14221 14225 28
11381 14226 14227 28
11382 14226 14228 28
11383 14226 14229 28
11384 14226 14230 28
11385 14231 14232 28
11386 14231 14233 28
11387 14231 14234 28
11388 14231 14235 28
11389 14236 14237 28
11390 14236 14238 28
11391 14236 14239 28
11392 14236 14240 28
11393 14241 14242 28
11394 14241 14243 28
11395 14241 14244 28
11396 14241 14245 28
11397 14246 14247 28
11398 14246 14248 28
11399 14246 14249 28
11400 14246 14250 28
11401 14251 14252 28
11402 14251 14253 28
11403 14251 14254 28
11404 14251 14255 28
11405 14256 14257 28
11406 14256 14258 28
11407 14256 14259 28
11408 14256 14260 28
11409 14261 14262 28
11410 14261 14263 28
11411 14261 14264 28
11412 14261 14265 28
11413 14266 14267 28
11414 14266 14268 28
11415 14266 14269 28
11416 14266 14270 28
11417 14271 14272 28
11418 14271 14273 28
11419 14271 14274 28
11420 14271 14275 28
11421 14276 14277 28
11422 14276 14278 28
11423 14276 14279 28
11424 14276 14280 28
11425 14281 14282 28
11426 14281 14283 28
11427 14281 14284 28
11428 14281 14285 28
11429 14286 14287 28
11430 14286 14288 28
11431 14286 14289 28
11432 14286 14290 28
11433 14291 14292 28
11434 14291 14293 28
11435 14291 14294 28
11436 14291 14295 28
11437 14296 14297 28
11438 14296 14298 28
11439 14296 14299 28
11440 14296 14300 28
11441 14301 14302 28
11442 14301 14303 28
11443 14301 14304 28
11444 14301 14305 28
11445 14306 14307 28
11446 14306 14308 28
11447 14306 14309 28
11448 14306 14310 28
11449 14311 14312 28
11450 14311 14313 28
11451 14311 14314 28
11452 14311 14315 28
11453 14316 14317 28
11454 14316 14318 28
11455 14316 14319 28
11456 14316 14320 28
11457 14321 14322 28
11458 14321 14323 28
11459 14321 14324 28
11460 14321 14325 28
11461 14326 14327 28
11462 14326 14328 28
11463 14326 14329 28
11464 14326 14330 28
11465 14331 14332 28
11466 14331 14333 28
11467 14331 14334 28
11468 14331 14335 28
11469 14336 14337 28
11470 14336 14338 28
11471 14336 14339 28
11472 14336 14340 28
11473 14341 14342 28
11474 14341 14343 28
11475 14341 14344 28
11476 14341 14345 28
11477 14346 14347 28
11478 14346 14348 28
11479 14346 14349 28
11480 14346 14350 28
11481 14351 14352 28
11482 14351 14353 28
11483 14351 14354 28
11484 14351 14355 28
11485 14356 14357 28
11486 14356 14358 28
11487 14356 14359 28
11488 14356 14360 28
11489 14361 14362 28
11490 14361 14363 28
11491 14361 14364 28
11492 14361 14365 28
11493 14366 14367 28
11494 14366 14368 28
11495 14366 14369 28
11496 14366 14370 28
11497 14371 14372 28
11498 14371 14373 28
11499 14371 14374 28
11500 14371 14375 28
11501 14376 14377 28
11502 14376 14378 28
11503 14376 14379 28
11504 14376 14380 28
11505 14381 14382 28
11506 14381 14383 28
11507 14381 14384 28
11508 14381 14385 28
11509 14386 14387 28
11510 14386 14388 28
11511 14386 14389 28
11512 14386 14390 28
11513 14391 14392 28
11514 14391 14393 28
11515 14391 14394 28
11516 14391 14395 28
11517 14396 14397 28
11518 14396 14398 28
11519 14396 14399 28
11520 14396 14400 28
11521 14401 14402 28
11522 14401 14403 28
11523 14401 14404 28
11524 14401 14405 28
11525 14406 14407 28
11526 14406 14408 28
11527 14406 14409 28
11528 14406 14410 28
11529 14411 14412 28
11530 14411 14413 28
11531 14411 14414 28
11532 14411 14415 28
11533 14416 14417 28
11534 14416 14418 28
11535 14416 14419 28
11536 14416 14420 28
11537 14421 14422 28
11538 14421 14423 28
11539 14421 14424 28
11540 14421 14425 28
11541 14426 14427 28
11542 14426 14428 28
11543 14426 14429 28
11544 14426 14430 28
11545 14431 14432 28
11546 14431 14433 28
11547 14431 14434 28
11548 14431 14435 28
11549 14436 14437 28
11550 14436 14438 28
11551 14436 14439 28
11552 14436 14440 28
11553 14441 14442 28
11554 14441 14443 28
11555 14441 14444 28
11556 14441 14445 28
11557 14446 14447 28
11558 14446 14448 28
11559 14446 14449 28
11560 14446 14450 28
11561 14451 14452 28
11562 14451 14453 28
11563 14451 14454 28
11564 14451 14455 28
11565 14456 14457 28
11566 14456 14458 28
11567 14456 14459 28
11568 14456 14460 28
11569 14461 14462 28
11570 14461 14463 28
11571 14461 14464 28
11572 14461 14465 28
11573 14466 14467 28
11574 14466 14468 28
11575 14466 14469 28
11576 14466 14470 28
11577 14471 14472 28
11578 14471 14473 28
11579 14471 14474 28
11580 14471 14475 28
11581 14476 14477 28
11582 14476 14478 28
11583 14476 14479 28
11584 14476 14480 28
11585 14481 14482 28
11586 14481 14483 28
11587 14481 14484 28
11588 14481 14485 28
11589 14486 14487 28
11590 14486 14488 28
11591 14486 14489 28
11592 14486 14490 28
11593 14491 14492 28
11594 14491 14493 28
11595 14491 14494 28
11596 14491 14495 28
11597 14496 14497 28
11598 14496 14498 28
11599 14496 14499 28
11600 14496 14500 28
11601 14501 14502 28
11602 14501 14503 28
11603 14501 14504 28
11604 14501 14505 28
11605 14506 14507 28
11606 14506 14508 28
11607 14506 14509 28
11608 14506 14510 28
11609 14511 14512 28
11610 14511 14513 28
11611 14511 14514 28
11612 14511 14515 28
11613 14516 14517 28
11614 14516 14518 28
11615 14516 14519 28
11616 14516 14520 28
11617 14521 14522 28
11618 14521 14523 28
11619 14521 14524 28
11620 14521 14525 28
11621 14526 14527 28
11622 14526 14528 28
11623 14526 14529 28
11624 14526 14530 28
11625 14531 14532 28
11626 14531 14533 28
11627 14531 14534 28
11628 14531 14535 28
11629 14536 14537 28
11630 14536 14538 28
11631 14536 14539 28
11632 14536 14540 28
11633 14541 14542 28
11634 14541 14543 28
11635 14541 14544 28
11636 14541 14545 28
11637 14546 14547 28
11638 14546 14548 28
11639 14546 14549 28
11640 14546 14550 28
11641 14551 14552 28
11642 14551 14553 28
11643 14551 14554 28
11644 14551 14555 28
11645 14556 14557 28
11646 14556 14558 28
11647 14556 14559 28
11648 14556 14560 28
11649 14561 14562 28
11650 14561 14563 28
11651 14561 14564 28
11652 14561 14565 28
11653 14566 14567 28
11654 14566 14568 28
11655 14566 14569 28
11656 14566 14570 28
11657 14571 14572 28
11658 14571 14573 28
11659 14571 14574 28
11660 14571 14575 28
11661 14576 14577 28
11662 14576 14578 28
11663 14576 14579 28
11664 14576 14580 28
11665 14581 14582 28
11666 14581 14583 28
11667 14581 14584 28
11668 14581 14585 28
11669 14586 14587 28
11670 14586 14588 28
11671 14586 14589 28
11672 14586 14590 28
11673 14591 14592 28
11674 14591 14593 28
11675 14591 14594 28
11676 14591 14595 28
11677 14596 14597 28
11678 14596 14598 28
11679 14596 14599 28
11680 14596 14600 28
11681 14601 14602 28
11682 14601 14603 28
11683 14601 14604 28
11684 14601 14605 28
11685 14606 14607 28
11686 14606 14608 28
11687 14606 14609 28
11688 14606 14610 28
11689 14611 14612 28
11690 14611 14613 28
11691 14611 14614 28
11692 14611 14615 28
11693 14616 14617 28
11694 14616 14618 28
11695 14616 14619 28
11696 14616 14620 28
11697 14621 14622 28
11698 14621 14623 28
11699 14621 14624 28
11700 14621 14625 28
11701 14626 14627 28
11702 14626 14628 28
11703 14626 14629 28
11704 14626 14630 28
11705 14631 14632 28
11706 14631 14633 28
11707 14631 14634 28
11708 14631 14635 28
11709 14636 14637 28
11710 14636 14638 28
11711 14636 14639 28
11712 14636 14640 28
11713 14641 14642 28
11714 14641 14643 28
11715 14641 14644 28
11716 14641 14645 28
11717 14646 14647 28
11718 14646 14648 28
11719 14646 14649 28
11720 14646 14650 28
11721 14651 14652 28
11722 14651 14653 28
11723 14651 14654 28
11724 14651 14655 28
11725 14656 14657 28
11726 14656 14658 28
11727 14656 14659 28
11728 14656 14660 28
11729 14661 14662 28
11730 14661 14663 28
11731 14661 14664 28
11732 14661 14665 28
11733 14666 14667 28
11734 14666 14668 28
11735 14666 14669 28
11736 14666 14670 28
11737 14671 14672 28
11738 14671 14673 28
11739 14671 14674 28
11740 14671 14675 28
11741 14676 14677 28
11742 14676 14678 28
11743 14676 14679 28
11744 14676 14680 28
11745 14681 14682 28
11746 14681 14683 28
11747 14681 14684 28
11748 14681 14685 28
11749 14686 14687 28
11750 14686 14688 28
11751 14686 14689 28
11752 14686 14690 28
11753 14691 14692 28
11754 14691 14693 28
11755 14691 14694 28
11756 14691 14695 28
11757 14696 14697 28
11758 14696 14698 28
11759 14696 14699 28
11760 14696 14700 28
11761 14701 14702 28
11762 14701 14703 28
11763 14701 14704 28
11764 14701 14705 28
11765 14706 14707 28
11766 14706 14708 28
11767 14706 14709 28
11768 14706 14710 28
11769 14711 14712 28
11770 14711 14713 28
11771 14711 14714 28
11772 14711 14715 28
11773 14716 14717 28
11774 14716 14718 28
11775 14716 14719 28
11776 14716 14720 28
11777 14721 14722 28
11778 14721 14723 28
11779 14721 14724 28
11780 14721 14725 28
11781 14726 14727 28
11782 14726 14728 28
11783 14726 14729 28
11784 14726 14730 28
11785 14731 14732 28
11786 14731 14733 28
11787 14731 14734 28
11788 14731 14735 28
11789 14736 14737 28
11790 14736 14738 28
11791 14736 14739 28
11792 14736 14740 28
11793 14741 14742 28
11794 14741 14743 28
11795 14741 14744 28
11796 14741 14745 28
11797 14746 14747 28
11798 14746 14748 28
11799 14746 14749 28
11800 14746 14750 28
11801 14751 14752 28
11802 14751 14753 28
11803 14751 14754 28
11804 14751 14755 28
11805 14756 14757 28
11806 14756 14758 28
11807 14756 14759 28
11808 14756 14760 28
11809 14761 14762 28
11810 14761 14763 28
11811 14761 14764 28
11812 14761 14765 28
11813 14766 14767 28
11814 14766 14768 28
11815 14766 14769 28
11816 14766 14770 28
11817 14771 14772 28
11818 14771 14773 28
11819 14771 14774 28
11820 14771 14775 28
11821 14776 14777 28
11822 14776 14778 28
11823 14776 14779 28
11824 14776 14780 28
11825 14781 14782 28
11826 14781 14783 28
11827 14781 14784 28
11828 14781 14785 28
11829 14786 14787 28
11830 14786 14788 28
11831 14786 14789 28
11832 14786 14790 28
11833 14791 14792 28
11834 14791 14793 28
11835 14791 14794 28
11836 14791 14795 28
11837 14796 14797 28
11838 14796 14798 28
11839 14796 14799 28
11840 14796 14800 28
11841 14801 14802 28
11842 14801 14803 28
11843 14801 14804 28
11844 14801 14805 28
11845 14806 14807 28
11846 14806 14808 28
11847 14806 14809 28
11848 14806 14810 28
11849 14811 14812 28
11850 14811 14813 28
11851 14811 14814 28
11852 14811 14815 28
11853 14816 14817 28
11854 14816 14818 28
11855 14816 14819 28
11856 14816 14820 28
11857 14821 14822 28
11858 14821 14823 28
11859 14821 14824 28
11860 14821 14825 28
11861 14826 14827 28
11862 14826 14828 28
11863 14826 14829 28
11864 14826 14830 28
11865 14831 14832 28
11866 14831 14833 28
11867 14831 14834 28
11868 14831 14835 28
11869 14836 14837 28
11870 14836 14838 28
11871 14836 14839 28
11872 14836 14840 28
11873 14841 14842 28
11874 14841 14843 28
11875 14841 14844 28
11876 14841 14845 28
11877 14846 14847 28
11878 14846 14848 28
11879 14846 14849 28
11880 14846 14850 28
11881 14851 14852 28
11882 14851 14853 28
11883 14851 14854 28
11884 14851 14855 28
11885 14856 14857 28
11886 14856 14858 28
11887 14856 14859 28
11888 14856 14860 28
11889 14861 14862 28
11890 14861 14863 28
11891 14861 14864 28
11892 14861 14865 28
11893 14866 14867 28
11894 14866 14868 28
11895 14866 14869 28
11896 14866 14870 28
11897 14871 14872 28
11898 14871 14873 28
11899 14871 14874 28
11900 14871 14875 28
11901 14876 14877 28
11902 14876 14878 28
11903 14876 14879 28
11904 14876 14880 28
11905 14881 14882 28
11906 14881 14883 28
11907 14881 14884 28
11908 14881 14885 28
11909 14886 14887 28
11910 14886 14888 28
11911 14886 14889 28
11912 14886 14890 28
11913 14891 14892 28
11914 14891 14893 28
11915 14891 14894 28
11916 14891 14895 28
11917 14896 14897 28
11918 14896 14898 28
11919 14896 14899 28
11920 14896 14900 28
11921 14901 14902 28
11922 14901 14903 28
11923 14901 14904 28
11924 14901 14905 28
11925 14906 14907 28
11926 14906 14908 28
11927 14906 14909 28
11928 14906 14910 28
11929 14911 14912 28
11930 14911 14913 28
11931 14911 14914 28
11932 14911 14915 28
11933 14916 14917 28
11934 14916 14918 28
11935 14916 14919 28
11936 14916 14920 28
11937 14921 14922 28
11938 14921 14923 28
11939 14921 14924 28
11940 14921 14925 28
11941 14926 14927 28
11942 14926 14928 28
11943 14926 14929 28
11944 14926 14930 28
11945 14931 14932 28
11946 14931 14933 28
11947 14931 14934 28
11948 14931 14935 28
11949 14936 14937 28
11950 14936 14938 28
11951 14936 14939 28
11952 14936 14940 28
11953 14941 14942 28
11954 14941 14943 28
11955 14941 14944 28
11956 14941 14945 28
11957 14946 14947 28
11958 14946 14948 28
11959 14946 14949 28
11960 14946 14950 28
11961 14951 14952 28
11962 14951 14953 28
11963 14951 14954 28
11964 14951 14955 28
11965 14956 14957 28
11966 14956 14958 28
11967 14956 14959 28
11968 14956 14960 28
11969 14961 14962 28
11970 14961 14963 28
11971 14961 14964 28
11972 14961 14965 28
11973 14966 14967 28
11974 14966 14968 28
11975 14966 14969 28
11976 14966 14970 28
11977 14971 14972 28
11978 14971 14973 28
11979 14971 14974 28
11980 14971 14975 28
11981 14976 14977 28
11982 14976 14978 28
11983 14976 14979 28
11984 14976 14980 28
11985 14981 14982 28
11986 14981 14983 28
11987 14981 14984 28
11988 14981 14985 28
11989 14986 14987 28
11990 14986 14988 28
11991 14986 14989 28
11992 14986 14990 28
11993 14991 14992 28
11994 14991 14993 28
11995 14991 14994 28
11996 14991 14995 28
11997 14996 14997 28
11998 14996 14998 28
11999 14996 14999 28
12000 14996 15000 28
12001 15001 15002 28
12002 15001 15003 28
12003 15001 15004 28
12004 15001 15005 28
12005 15006 15007 28
12006 15006 15008 28
12007 15006 15009 28
12008 15006 15010 28
12009 15011 15012 28
12010 15011 15013 28
12011 15011 15014 28
12012 15011 15015 28
12013 15016 15017 28
12014 15016 15018 28
12015 15016 15019 28
12016 15016 15020 28
12017 15021 15022 28
12018 15021 15023 28
12019 15021 15024 28
12020 15021 15025 28
12021 15026 15027 28
12022 15026 15028 28
12023 15026 15029 28
12024 15026 15030 28
12025 15031 15032 28
12026 15031 15033 28
12027 15031 15034 28
12028 15031 15035 28
12029 15036 15037 28
12030 15036 15038 28
12031 15036 15039 28
12032 15036 15040 28
12033 15041 15042 28
12034 15041 15043 28
12035 15041 15044 28
12036 15041 15045 28
12037 15046 15047 28
12038 15046 15048 28
12039 15046 15049 28
12040 15046 15050 28
12041 15051 15052 28
12042 15051 15053 28
12043 15051 15054 28
12044 15051 15055 28
12045 15056 15057 28
12046 15056 15058 28
12047 15056 15059 28
12048 15056 15060 28
12049 15061 15062 28
12050 15061 15063 28
12051 15061 15064 28
12052 15061 15065 28
12053 15066 15067 28
12054 15066 15068 28
12055 15066 15069 28
12056 15066 15070 28
12057 15071 15072 28
12058 15071 15073 28
12059 15071 15074 28
12060 15071 15075 28
12061 15076 15077 28
12062 15076 15078 28
12063 15076 15079 28
12064 15076 15080 28
12065 15081 15082 28
12066 15081 15083 28
12067 15081 15084 28
12068 15081 15085 28
12069 15086 15087 28
12070 15086 15088 28
12071 15086 15089 28
12072 15086 15090 28
12073 15091 15092 28
12074 15091 15093 28
12075 15091 15094 28
12076 15091 15095 28
12077 15096 15097 28
12078 15096 15098 28
12079 15096 15099 28
12080 15096 15100 28
12081 15101 15102 28
12082 15101 15103 28
12083 15101 15104 28
12084 15101 15105 28
12085 15106 15107 28
12086 15106 15108 28
12087 15106 15109 28
12088 15106 15110 28
12089 15111 15112 28
12090 15111 15113 28
12091 15111 15114 28
12092 15111 15115 28
12093 15116 15117 28
12094 15116 15118 28
12095 15116 15119 28
12096 15116 15120 28
12097 15121 15122 28
12098 15121 15123 28
12099 15121 15124 28
12100 15121 15125 28
12101 15126 15127 28
12102 15126 15128 28
12103 15126 15129 28
12104 15126 15130 28
12105 15131 15132 28
12106 15131 15133 28
12107 15131 15134 28
12108 15131 15135 28
12109 15136 15137 28
12110 15136 15138 28
12111 15136 15139 28
12112 15136 15140 28
12113 15141 15142 28
12114 15141 15143 28
12115 15141 15144 28
12116 15141 15145 28
12117 15146 15147 28
12118 15146 15148 28
12119 15146 15149 28
12120 15146 15150 28
12121 15151 15152 28
12122 15151 15153 28
12123 15151 15154 28
12124 15151 15155 28
12125 15156 15157 28
12126 15156 15158 28
12127 15156 15159 28
12128 15156 15160 28
12129 15161 15162 28
12130 15161 15163 28
12131 15161 15164 28
12132 15161 15165 28
12133 15166 15167 28
12134 15166 15168 28
12135 15166 15169 28
12136 15166 15170 28
12137 15171 15172 28
12138 15171 15173 28
12139 15171 15174 28
12140 15171 15175 28
12141 15176 15177 28
12142 15176 15178 28
12143 15176 15179 28
12144 15176 15180 28
12145 15181 15182 28
12146 15181 15183 28
12147 15181 15184 28
12148 15181 15185 28
12149 15186 15187 28
12150 15186 15188 28
12151 15186 15189 28
12152 15186 15190 28
12153 15191 15192 28
12154 15191 15193 28
12155 15191 15194 28
12156 15191 15195 28
12157 15196 15197 28
12158 15196 15198 28
12159 15196 15199 28
12160 15196 15200 28
12161 15201 15202 28
12162 15201 15203 28
12163 15201 15204 28
12164 15201 15205 28
12165 15206 15207 28
12166 15206 15208 28
12167 15206 15209 28
12168 15206 15210 28
12169 15211 15212 28
12170 15211 15213 28
12171 15211 15214 28
12172 15211 15215 28
12173 15216 15217 28
12174 15216 15218 28
12175 15216 15219 28
12176 15216 15220 28
12177 15221 15222 28
12178 15221 15223 28
12179 15221 15224 28
12180 15221 15225 28
12181 15226 15227 28
12182 15226 15228 28
12183 15226 15229 28
12184 15226 15230 28
12185 15231 15232 28
12186 15231 15233 28
12187 15231 15234 28
12188 15231 15235 28
12189 15236 15237 28
12190 15236 15238 28
12191 15236 15239 28
12192 15236 15240 28
12193 15241 15242 28
12194 15241 15243 28
12195 15241 15244 28
12196 15241 15245 28
12197 15246 15247 28
12198 15246 15248 28
12199 15246 15249 28
12200 15246 15250 28
12201 15251 15252 28
12202 15251 15253 28
12203 15251 15254 28
12204 15251 15255 28
12205 15256 15257 28
12206 15256 15258 28
12207 15256 15259 28
12208 15256 15260 28
12209 15261 15262 28
12210 15261 15263 28
12211 15261 15264 28
12212 15261 15265 28
12213 15266 15267 28
12214 15266 15268 28
12215 15266 15269 28
12216 15266 15270 28
12217 15271 15272 28
12218 15271 15273 28
12219 15271 15274 28
12220 15271 15275 28
12221 15276 15277 28
12222 15276 15278 28
12223 15276 15279 28
12224 15276 15280 28
12225 15281 15282 28
12226 15281 15283 28
12227 15281 15284 28
12228 15281 15285 28
12229 15286 15287 28
12230 15286 15288 28
12231 15286 15289 28
12232 15286 15290 28
12233 15291 15292 28
12234 15291 15293 28
12235 15291 15294 28
12236 15291 15295 28
12237 15296 15297 28
12238 15296 15298 28
12239 15296 15299 28
12240 15296 15300 28
12241 15301 15302 28
12242 15301 15303 28
12243 15301 15304 28
12244 15301 15305 28
12245 15306 15307 28
12246 15306 15308 28
12247 15306 15309 28
12248 15306 15310 28
12249 15311 15312 28
12250 15311 15313 28
12251 15311 15314 28
12252 15311 15315 28
12253 15316 15317 28
12254 15316 15318 28
12255 15316 15319 28
12256 15316 15320 28
12257 15321 15322 28
12258 15321 15323 28
12259 15321 15324 28
12260 15321 15325 28
12261 15326 15327 28
12262 15326 15328 28
12263 15326 15329 28
12264 15326 15330 28
12265 15331 15332 28
12266 15331 15333 28
12267 15331 15334 28
12268 15331 15335 28
12269 15336 15337 28
12270 15336 15338 28
12271 15336 15339 28
12272 15336 15340 28
12273 15341 15342 28
12274 15341 15343 28
12275 15341 15344 28
12276 15341 15345 28
12277 15346 15347 28
12278 15346 15348 28
12279 15346 15349 28
12280 15346 15350 28
12281 15351 15352 28
12282 15351 15353 28
12283 15351 15354 28
12284 15351 15355 28
12285 15356 15357 28
12286 15356 15358 28
12287 15356 15359 28
12288 15356 15360 28
12289 15361 15362 28
12290 15361 15363 28
12291 15361 15364 28
12292 15361 15365 28
12293 15366 15367 28
12294 15366 15368 28
12295 15366 15369 28
12296 15366 15370 28
12297 15371 15372 28
12298 15371 15373 28
12299 15371 15374 28
12300 15371 15375 28
12301 15376 15377 28
12302 15376 15378 28
12303 15376 15379 28
12304 15376 15380 28
12305 15381 15382 28
12306 15381 15383 28
12307 15381 15384 28
12308 15381 15385 28
12309 15386 15387 28
12310 15386 15388 28
12311 15386 15389 28
12312 15386 15390 28
12313 15391 15392 28
12314 15391 15393 28
12315 15391 15394 28
12316 15391 15395 28
12317 15396 15397 28
12318 15396 15398 28
12319 15396 15399 28
12320 15396 15400 28
12321 15401 15402 28
12322 15401 15403 28
12323 15401 15404 28
12324 15401 15405 28
12325 15406 15407 28
12326 15406 15408 28
12327 15406 15409 28
12328 15406 15410 28
12329 15411 15412 28
12330 15411 15413 28
12331 15411 15414 28
12332 15411 15415 28
12333 15416 15417 28
12334 15416 15418 28
12335 15416 15419 28
12336 15416 15420 28
12337 15421 15422 28
12338 15421 15423 28
12339 15421 15424 28
12340 15421 15425 28
12341 15426 15427 28
12342 15426 15428 28
12343 15426 15429 28
12344 15426 15430 28
12345 15431 15432 28
12346 15431 15433 28
12347 15431 15434 28
12348 15431 15435 28
12349 15436 15437 28
12350 15436 15438 28
12351 15436 15439 28
12352 15436 15440 28
12353 15441 15442 28
12354 15441 15443 28
12355 15441 15444 28
12356 15441 15445 28
12357 15446 15447 28
12358 15446 15448 28
12359 15446 15449 28
12360 15446 15450 28
12361 15451 15452 28
12362 15451 15453 28
12363 15451 15454 28
12364 15451 15455 28
12365 15456 15457 28
12366 15456 15458 28
12367 15456 15459 28
12368 15456 15460 28
12369 15461 15462 28
12370 15461 15463 28
12371 15461 15464 28
12372 15461 15465 28
12373 15466 15467 28
12374 15466 15468 28
12375 15466 15469 28
12376 15466 15470 28
12377 15471 15472 28
12378 15471 15473 28
12379 15471 15474 28
12380 15471 15475 28
12381 15476 15477 28
12382 15476 15478 28
12383 15476 15479 28
12384 15476 15480 28
12385 15481 15482 28
12386 15481 15483 28
12387 15481 15484 28
12388 15481 15485 28
12389 15486 15487 28
12390 15486 15488 28
12391 15486 15489 28
12392 15486 15490 28
12393 15491 15492 28
12394 15491 15493 28
12395 15491 15494 28
12396 15491 15495 28
12397 15496 15497 28
12398 15496 15498 28
12399 15496 15499 28
12400 15496 15500 28
12401 15501 15502 28
12402 15501 15503 28
12403 15501 15504 28
12404 15501 15505 28
12405 15506 15507 28
12406 15506 15508 28
12407 15506 15509 28
12408 15506 15510 28
12409 15511 15512 28
12410 15511 15513 28
12411 15511 15514 28
12412 15511 15515 28
12413 15516 15517 28
12414 15516 15518 28
12415 15516 15519 28
12416 15516 15520 28
12417 15521 15522 28
12418 15521 15523 28
12419 15521 15524 28
12420 15521 15525 28
12421 15526 15527 28
12422 15526 15528 28
12423 15526 15529 28
12424 15526 15530 28
12425 15531 15532 28
12426 15531 15533 28
12427 15531 15534 28
12428 15531 15535 28
12429 15536 15537 28
12430 15536 15538 28
12431 15536 15539 28
12432 15536 15540 28
12433 15541 15542 28
12434 15541 15543 28
12435 15541 15544 28
12436 15541 15545 28
12437 15546 15547 28
12438 15546 15548 28
12439 15546 15549 28
12440 15546 15550 28
12441 15551 15552 28
12442 15551 15553 28
12443 15551 15554 28
12444 15551 15555 28
12445 15556 15557 28
12446 15556 15558 28
12447 15556 15559 28
12448 15556 15560 28
12449 15561 15562 28
12450 15561 15563 28
12451 15561 15564 28
12452 15561 15565 28
12453 15566 15567 28
12454 15566 15568 28
12455 15566 15569 28
12456 15566 15570 28
12457 15571 15572 28
12458 15571 15573 28
12459 15571 15574 28
12460 15571 15575 28
12461 15576 15577 28
12462 15576 15578 28
12463 15576 15579 28
12464 15576 15580 28
12465 15581 15582 28
12466 15581 15583 28
12467 15581 15584 28
12468 15581 15585 28
12469 15586 15587 28
12470 15586 15588 28
12471 15586 15589 28
12472 15586 15590 28
12473 15591 15592 28
12474 15591 15593 28
12475 15591 15594 28
12476 15591 15595 28
12477 15596 15597 28
12478 15596 15598 28
12479 15596 15599 28
12480 15596 15600 28
12481 15601 15602 28
12482 15601 15603 28
12483 15601 15604 28
12484 15601 15605 28
12485 15606 15607 28
12486 15606 15608 28
12487 15606 15609 28
12488 15606 15610 28
12489 15611 15612 28
12490 15611 15613 28
12491 15611 15614 28
12492 15611 15615 28
12493 15616 15617 28
12494 15616 15618 28
12495 15616 15619 28
12496 15616 15620 28
12497 15621 15622 28
12498 15621 15623 28
12499 15621 15624 28
12500 15621 15625 28
12501 15626 15627 28
12502 15626 15628 28
12503 15626 15629 28
12504 15626 15630 28
12505 15631 15632 28
12506 15631 15633 28
12507 15631 15634 28
12508 15631 15635 28
12509 15636 15637 28
12510 15636 15638 28
12511 15636 15639 28
12512 15636 15640 28
12513 15641 15642 28
12514 15641 15643 28
12515 15641 15644 28
12516 15641 15645 28
12517 15646 15647 28
12518 15646 15648 28
12519 15646 15649 28
12520 15646 15650 28
12521 15651 15652 28
12522 15651 15653 28
12523 15651 15654 28
12524 15651 15655 28
12525 15656 15657 28
12526 15656 15658 28
12527 15656 15659 28
12528 15656 15660 28
12529 15661 15662 28
12530 15661 15663 28
12531 15661 15664 28
12532 15661 15665 28
12533 15666 15667 28
12534 15666 15668 28
12535 15666 15669 28
12536 15666 15670 28
12537 15671 15672 28
12538 15671 15673 28
12539 15671 15674 28
12540 15671 15675 28
12541 15676 15677 28
12542 15676 15678 28
12543 15676 15679 28
12544 15676 15680 28
12545 15681 15682 28
12546 15681 15683 28
12547 15681 15684 28
12548 15681 15685 28
12549 15686 15687 28
12550 15686 15688 28
12551 15686 15689 28
12552 15686 15690 28
12553 15691 15692 28
12554 15691 15693 28
12555 15691 15694 28
12556 15691 15695 28
12557 15696 15697 28
12558 15696 15698 28
12559 15696 15699 28
12560 15696 15700 28
12561 15701 15702 28
12562 15701 15703 28
12563 15701 15704 28
12564 15701 15705 28
12565 15706 15707 28
12566 15706 15708 28
12567 15706 15709 28
12568 15706 15710 28
12569 15711 15712 28
12570 15711 15713 28
12571 15711 15714 28
12572 15711 15715 28
12573 15716 15717 28
12574 15716 15718 28
12575 15716 15719 28
12576 15716 15720 28
12577 15721 15722 28
12578 15721 15723 28
12579 15721 15724 28
12580 15721 15725 28
12581 15726 15727 28
12582 15726 15728 28
12583 15726 15729 28
12584 15726 15730 28
12585 15731 15732 28
12586 15731 15733 28
12587 15731 15734 28
12588 15731 15735 28
12589 15736 15737 28
12590 15736 15738 28
12591 15736 15739 28
12592 15736 15740 28
12593 15741 15742 28
12594 15741 15743 28
12595 15741 15744 28
12596 15741 15745 28
12597 15746 15747 28
12598 15746 15748 28
12599 15746 15749 28
12600 15746 15750 28
12601 15751 15752 28
12602 15751 15753 28
12603 15751 15754 28
12604 15751 15755 28
12605 15756 15757 28
12606 15756 15758 28
12607 15756 15759 28
12608 15756 15760 28
12609 15761 15762 28
12610 15761 15763 28
12611 15761 15764 28
12612 15761 15765 28
12613 15766 15767 28
12614 15766 15768 28
12615 15766 15769 28
12616 15766 15770 28
12617 15771 15772 28
12618 15771 15773 28
12619 15771 15774 28
12620 15771 15775 28
12621 15776 15777 28
12622 15776 15778 28
12623 15776 15779 28
12624 15776 15780 28
12625 15781 15782 28
12626 15781 15783 28
12627 15781 15784 28
12628 15781 15785 28
12629 15786 15787 28
12630 15786 15788 28
12631 15786 15789 28
12632 15786 15790 28
12633 15791 15792 28
12634 15791 15793 28
12635 15791 15794 28
12636 15791 15795 28
12637 15796 15797 28
12638 15796 15798 28
12639 15796 15799 28
12640 15796 15800 28
12641 15801 15802 28
12642 15801 15803 28
12643 15801 15804 28
12644 15801 15805 28
12645 15806 15807 28
12646 15806 15808 28
12647 15806 15809 28
12648 15806 15810 28
12649 15811 15812 28
12650 15811 15813 28
12651 15811 15814 28
12652 15811 15815 28
12653 15816 15817 28
12654 15816 15818 28
12655 15816 15819 28
12656 15816 15820 28
12657 15821 15822 28
12658 15821 15823 28
12659 15821 15824 28
12660 15821 15825 28
12661 15826 15827 28
12662 15826 15828 28
12663 15826 15829 28
12664 15826 15830 28
12665 15831 15832 28
12666 15831 15833 28
12667 15831 15834 28
12668 15831 15835 28
12669 15836 15837 28
12670 15836 15838 28
12671 15836 15839 28
12672 15836 15840 28
12673 15841 15842 28
12674 15841 15843 28
12675 15841 15844 28
12676 15841 15845 28
12677 15846 15847 28
12678 15846 15848 28
12679 15846 15849 28
12680 15846 15850 28
12681 15851 15852 28
12682 15851 15853 28
12683 15851 15854 28
12684 15851 15855 28
12685 15856 15857 28
12686 15856 15858 28
12687 15856 15859 28
12688 15856 15860 28
12689 15861 15862 28
12690 15861 15863 28
12691 15861 15864 28
12692 15861 15865 28
12693 15866 15867 28
12694 15866 15868 28
12695 15866 15869 28
12696 15866 15870 28
12697 15871 15872 28
12698 15871 15873 28
12699 15871 15874 28
12700 15871 15875 28
12701 15876 15877 28
12702 15876 15878 28
12703 15876 15879 28
12704 15876 15880 28
12705 15881 15882 28
12706 15881 15883 28
12707 15881 15884 28
12708 15881 15885 28
12709 15886 15887 28
12710 15886 15888 28
12711 15886 15889 28
12712 15886 15890 28
12713 15891 15892 28
12714 15891 15893 28
12715 15891 15894 28
12716 15891 15895 28
12717 15896 15897 28
12718 15896 15898 28
12719 15896 15899 28
12720 15896 15900 28
12721 15901 15902 28
12722 15901 15903 28
12723 15901 15904 28
12724 15901 15905 28
12725 15906 15907 28
12726 15906 15908 28
12727 15906 15909 28
12728 15906 15910 28
12729 15911 15912 28
12730 15911 15913 28
12731 15911 15914 28
12732 15911 15915 28
12733 15916 15917 28
12734 15916 15918 28
12735 15916 15919 28
12736 15916 15920 28
12737 15921 15922 28
12738 15921 15923 28
12739 15921 15924 28
12740 15921 15925 28
12741 15926 15927 28
12742 15926 15928 28
12743 15926 15929 28
12744 15926 15930 28
12745 15931 15932 28
12746 15931 15933 28
12747 15931 15934 28
12748 15931 15935 28
12749 15936 15937 28
12750 15936 15938 28
12751 15936 15939 28
12752 15936 15940 28
12753 15941 15942 28
12754 15941 15943 28
12755 15941 15944 28
12756 15941 15945 28
12757 15946 15947 28
12758 15946 15948 28
12759 15946 15949 28
12760 15946 15950 28
12761 15951 15952 28
12762 15951 15953 28
12763 15951 15954 28
12764 15951 15955 28
12765 15956 15957 28
12766 15956 15958 28
12767 15956 15959 28
12768 15956 15960 28
12769 15961 15962 28
12770 15961 15963 28
12771 15961 15964 28
12772 15961 15965 28
12773 15966 15967 28
12774 15966 15968 28
12775 15966 15969 28
12776 15966 15970 28
12777 15971 15972 28
12778 15971 15973 28
12779 15971 15974 28
12780 15971 15975 28
12781 15976 15977 28
12782 15976 15978 28
12783 15976 15979 28
12784 15976 15980 28
12785 15981 15982 28
12786 15981 15983 28
12787 15981 15984 28
12788 15981 15985 28
12789 15986 15987 28
12790 15986 15988 28
12791 15986 15989 28
12792 15986 15990 28
12793 15991 15992 28
12794 15991 15993 28
12795 15991 15994 28
12796 15991 15995 28
12797 15996 15997 28
12798 15996 15998 28
12799 15996 15999 28
12800 15996 16000 28
12801 16001 16002 28
12802 16001 16003 28
12803 16001 16004 28
12804 16001 16005 28
12805 16006 16007 28
12806 16006 16008 28
12807 16006 16009 28
12808 16006 16010 28
12809 16011 16012 28
12810 16011 16013 28
12811 16011 16014 28
12812 16011 16015 28
12813 16016 16017 28
12814 16016 16018 28
12815 16016 16019 28
12816 16016 16020 28
12817 16021 16022 28
12818 16021 16023 28
12819 16021 16024 28
12820 16021 16025 28
12821 16026 16027 28
12822 16026 16028 28
12823 16026 16029 28
12824 16026 16030 28
12825 16031 16032 28
12826 16031 16033 28
12827 16031 16034 28
12828 16031 16035 28
12829 16036 16037 28
12830 16036 16038 28
12831 16036 16039 28
12832 16036 16040 28
12833 16041 16042 28
12834 16041 16043 28
12835 16041 16044 28
12836 16041 16045 28
12837 16046 16047 28
12838 16046 16048 28
12839 16046 16049 28
12840 16046 16050 28
12841 16051 16052 28
12842 16051 16053 28
12843 16051 16054 28
12844 16051 16055 28
12845 16056 16057 28
12846 16056 16058 28
12847 16056 16059 28
12848 16056 16060 28
12849 16061 16062 28
12850 16061 16063 28
12851 16061 16064 28
12852 16061 16065 28
12853 16066 16067 28
12854 16066 16068 28
12855 16066 16069 28
12856 16066 16070 28
12857 16071 16072 28
12858 16071 16073 28
12859 16071 16074 28
12860 16071 16075 28
12861 16076 16077 28
12862 16076 16078 28
12863 16076 16079 28
12864 16076 16080 28
12865 16081 16082 28
12866 16081 16083 28
12867 16081 16084 28
12868 16081 16085 28
12869 16086 16087 28
12870 16086 16088 28
12871 16086 16089 28
12872 16086 16090 28
12873 16091 16092 28
12874 16091 16093 28
12875 16091 16094 28
12876 16091 16095 28
12877 16096 16097 28
12878 16096 16098 28
12879 16096 16099 28
12880 16096 16100 28
12881 16101 16102 28
12882 16101 16103 28
12883 16101 16104 28
12884 16101 16105 28
12885 16106 16107 28
12886 16106 16108 28
12887 16106 16109 28
12888 16106 16110 28
12889 16111 16112 28
12890 16111 16113 28
12891 16111 16114 28
12892 16111 16115 28
12893 16116 16117 28
12894 16116 16118 28
12895 16116 16119 28
12896 16116 16120 28
12897 16121 16122 28
12898 16121 16123 28
12899 16121 16124 28
12900 16121 16125 28
12901 16126 16127 28
12902 16126 16128 28
12903 16126 16129 28
12904 16126 16130 28
12905 16131 16132 28
12906 16131 16133 28
12907 16131 16134 28
12908 16131 16135 28
12909 16136 16137 28
12910 16136 16138 28
12911 16136 16139 28
12912 16136 16140 28
12913 16141 16142 28
12914 16141 16143 28
12915 16141 16144 28
12916 16141 16145 28
12917 16146 16147 28
12918 16146 16148 28
12919 16146 16149 28
12920 16146 16150 28
12921 16151 16152 28
12922 16151 16153 28
12923 16151 16154 28
12924 16151 16155 28
12925 16156 16157 28
12926 16156 16158 28
12927 16156 16159 28
12928 16156 16160 28
12929 16161 16162 28
12930 16161 16163 28
12931 16161 16164 28
12932 16161 16165 28
12933 16166 16167 28
12934 16166 16168 28
12935 16166 16169 28
12936 16166 16170 28
12937 16171 16172 28
12938 16171 16173 28
12939 16171 16174 28
12940 16171 16175 28
12941 16176 16177 28
12942 16176 16178 28
12943 16176 16179 28
12944 16176 16180 28
12945 16181 16182 28
12946 16181 16183 28
12947 16181 16184 28
12948 16181 16185 28
12949 16186 16187 28
12950 16186 16188 28
12951 16186 16189 28
12952 16186 16190 28
12953 16191 16192 28
12954 16191 16193 28
12955 16191 16194 28
12956 16191 16195 28
12957 16196 16197 28
12958 16196 16198 28
12959 16196 16199 28
12960 16196 16200 28
12961 16201 16202 28
12962 16201 16203 28
12963 16201 16204 28
12964 16201 16205 28
12965 16206 16207 28
12966 16206 16208 28
12967 16206 16209 28
12968 16206 16210 28
12969 16211 16212 28
12970 16211 16213 28
12971 16211 16214 28
12972 16211 16215 28
12973 16216 16217 28
12974 16216 16218 28
12975 16216 16219 28
12976 16216 16220 28
12977 16221 16222 28
12978 16221 16223 28
12979 16221 16224 28
12980 16221 16225 28
12981 16226 16227 28
12982 16226 16228 28
12983 16226 16229 28
12984 16226 16230 28
12985 16231 16232 28
12986 16231 16233 28
12987 16231 16234 28
12988 16231 16235 28
12989 16236 16237 28
12990 16236 16238 28
12991 16236 16239 28
12992 16236 16240 28
12993 16241 16242 28
12994 16241 16243 28
12995 16241 16244 28
12996 16241 16245 28
12997 16246 16247 28
12998 16246 16248 28
12999 16246 16249 28
13000 16246 16250 28
13001 16251 16252 28
13002 16251 16253 28
13003 16251 16254 28
13004 16251 16255 28
13005 16256 16257 28
13006 16256 16258 28
13007 16256 16259 28
13008 16256 16260 28
13009 16261 16262 28
13010 16261 16263 28
13011 16261 16264 28
13012 16261 16265 28
13013 16266 16267 28
13014 16266 16268 28
13015 16266 16269 28
13016 16266 16270 28
13017 16271 16272 28
13018 16271 16273 28
13019 16271 16274 28
13020 16271 16275 28
13021 16276 16277 28
13022 16276 16278 28
13023 16276 16279 28
13024 16276 16280 28
13025 16281 16282 28
13026 16281 16283 28
13027 16281 16284 28
13028 16281 16285 28
13029 16286 16287 28
13030 16286 16288 28
13031 16286 16289 28
13032 16286 16290 28
13033 16291 16292 28
13034 16291 16293 28
13035 16291 16294 28
13036 16291 16295 28
13037 16296 16297 28
13038 16296 16298 28
13039 16296 16299 28
13040 16296 16300 28
13041 16301 16302 28
13042 16301 16303 28
13043 16301 16304 28
13044 16301 16305 28
13045 16306 16307 28
13046 16306 16308 28
13047 16306 16309 28
13048 16306 16310 28
13049 16311 16312 28
13050 16311 16313 28
13051 16311 16314 28
13052 16311 16315 28
13053 16316 16317 28
13054 16316 16318 28
13055 16316 16319 28
13056 16316 16320 28
13057 16321 16322 28
13058 16321 16323 28
13059 16321 16324 28
13060 16321 16325 28
13061 16326 16327 28
13062 16326 16328 28
13063 16326 16329 28
13064 16326 16330 28
13065 16331 16332 28
13066 16331 16333 28
13067 16331 16334 28
13068 16331 16335 28
13069 16336 16337 28
13070 16336 16338 28
13071 16336 16339 28
13072 16336 16340 28
13073 16341 16342 28
13074 16341 16343 28
13075 16341 16344 28
13076 16341 16345 28
13077 16346 16347 28
13078 16346 16348 28
13079 16346 16349 28
13080 16346 16350 28
13081 16351 16352 28
13082 16351 16353 28
13083 16351 16354 28
13084 16351 16355 28
13085 16356 16357 28
13086 16356 16358 28
13087 16356 16359 28
13088 16356 16360 28
13089 16361 16362 28
13090 16361 16363 28
13091 16361 16364 28
13092 16361 16365 28
13093 16366 16367 28
13094 16366 16368 28
13095 16366 16369 28
13096 16366 16370 28
13097 16371 16372 28
13098 16371 16373 28
13099 16371 16374 28
13100 16371 16375 28
13101 16376 16377 28
13102 16376 16378 28
13103 16376 16379 28
13104 16376 16380 28
13105 16381 16382 28
13106 16381 16383 28
13107 16381 16384 28
13108 16381 16385 28
13109 16386 16387 28
13110 16386 16388 28
13111 16386 16389 28
13112 16386 16390 28
13113 16391 16392 28
13114 16391 16393 28
13115 16391 16394 28
13116 16391 16395 28
13117 16396 16397 28
13118 16396 16398 28
13119 16396 16399 28
13120 16396 16400 28
13121 16401 16402 28
13122 16401 16403 28
13123 16401 16404 28
13124 16401 16405 28
13125 16406 16407 28
13126 16406 16408 28
13127 16406 16409 28
13128 16406 16410 28
13129 16411 16412 28
13130 16411 16413 28
13131 16411 16414 28
13132 16411 16415 28
13133 16416 16417 28
13134 16416 16418 28
13135 16416 16419 28
13136 16416 16420 28
13137 16421 16422 28
13138 16421 16423 28
13139 16421 16424 28
13140 16421 16425 28
13141 16426 16427 28
13142 16426 16428 28
13143 16426 16429 28
13144 16426 16430 28
13145 16431 16432 28
13146 16431 16433 28
13147 16431 16434 28
13148 16431 16435 28
13149 16436 16437 28
13150 16436 16438 28
13151 16436 16439 28
13152 16436 16440 28
13153 16441 16442 28
13154 16441 16443 28
13155 16441 16444 28
13156 16441 16445 28
13157 16446 16447 28
13158 16446 16448 28
13159 16446 16449 28
13160 16446 16450 28
13161 16451 16452 28
13162 16451 16453 28
13163 16451 16454 28
13164 16451 16455 28
13165 16456 16457 28
13166 16456 16458 28
13167 16456 16459 28
13168 16456 16460 28
13169 16461 16462 28
13170 16461 16463 28
13171 16461 16464 28
13172 16461 16465 28
13173 16466 16467 28
13174 16466 16468 28
13175 16466 16469 28
13176 16466 16470 28
13177 16471 16472 28
13178 16471 16473 28
13179 16471 16474 28
13180 16471 16475 28
13181 16476 16477 28
13182 16476 16478 28
13183 16476 16479 28
13184 16476 16480 28
13185 16481 16482 28
13186 16481 16483 28
13187 16481 16484 28
13188 16481 16485 28
13189 16486 16487 28
13190 16486 16488 28
13191 16486 16489 28
13192 16486 16490 28
13193 16491 16492 28
13194 16491 16493 28
13195 16491 16494 28
13196 16491 16495 28
13197 16496 16497 28
13198 16496 16498 28
13199 16496 16499 28
13200 16496 16500 28
13201 16501 16502 28
13202 16501 16503 28
13203 16501 16504 28
13204 16501 16505 28
13205 16506 16507 28
13206 16506 16508 28
13207 16506 16509 28
13208 16506 16510 28
13209 16511 16512 28
13210 16511 16513 28
13211 16511 16514 28
13212 16511 16515 28
13213 16516 16517 28
13214 16516 16518 28
13215 16516 16519 28
13216 16516 16520 28
13217 16521 16522 28
13218 16521 16523 28
13219 16521 16524 28
13220 16521 16525 28
13221 16526 16527 28
13222 16526 16528 28
13223 16526 16529 28
13224 16526 16530 28
13225 16531 16532 28
13226 16531 16533 28
13227 16531 16534 28
13228 16531 16535 28
13229 16536 16537 28
13230 16536 16538 28
13231 16536 16539 28
13232 16536 16540 28
13233 16541 16542 28
13234 16541 16543 28
13235 16541 16544 28
13236 16541 16545 28
13237 16546 16547 28
13238 16546 16548 28
13239 16546 16549 28
13240 16546 16550 28
13241 16551 16552 28
13242 16551 16553 28
13243 16551 16554 28
13244 16551 16555 28
13245 16556 16557 28
13246 16556 16558 28
13247 16556 16559 28
13248 16556 16560 28
13249 16561 16562 28
13250 16561 16563 28
13251 16561 16564 28
13252 16561 16565 28
13253 16566 16567 28
13254 16566 16568 28
13255 16566 16569 28
13256 16566 16570 28
13257 16571 16572 28
13258 16571 16573 28
13259 16571 16574 28
13260 16571 16575 28
13261 16576 16577 28
13262 16576 16578 28
13263 16576 16579 28
13264 16576 16580 28
13265 16581 16582 28
13266 16581 16583 28
13267 16581 16584 28
13268 16581 16585 28
13269 16586 16587 28
13270 16586 16588 28
13271 16586 16589 28
13272 16586 16590 28
13273 16591 16592 28
13274 16591 16593 28
13275 16591 16594 28
13276 16591 16595 28
13277 16596 16597 28
13278 16596 16598 28
13279 16596 16599 28
13280 16596 16600 28
13281 16601 16602 28
13282 16601 16603 28
13283 16601 16604 28
13284 16601 16605 28
13285 16606 16607 28
13286 16606 16608 28
13287 16606 16609 28
13288 16606 16610 28
13289 16611 16612 28
13290 16611 16613 28
13291 16611 16614 28
13292 16611 16615 28
13293 16616 16617 28
13294 16616 16618 28
13295 16616 16619 28
13296 16616 16620 28
13297 16621 16622 28
13298 16621 16623 28
13299 16621 16624 28
13300 16621 16625 28
13301 16626 16627 28
13302 16626 16628 28
13303 16626 16629 28
13304 16626 16630 28
13305 16631 16632 28
13306 16631 16633 28
13307 16631 16634 28
13308 16631 16635 28
13309 16636 16637 28
13310 16636 16638 28
13311 16636 16639 28
13312 16636 16640 28
13313 16641 16642 28
13314 16641 16643 28
13315 16641 16644 28
13316 16641 16645 28
13317 16646 16647 28
13318 16646 16648 28
13319 16646 16649 28
13320 16646 16650 28
13321 16651 16652 28
13322 16651 16653 28
13323 16651 16654 28
13324 16651 16655 28
13325 16656 16657 28
13326 16656 16658 28
13327 16656 16659 28
13328 16656 16660 28
13329 16661 16662 28
13330 16661 16663 28
13331 16661 16664 28
13332 16661 16665 28
13333 16666 16667 28
13334 16666 16668 28
13335 16666 16669 28
13336 16666 16670 28
13337 16671 16672 28
13338 16671 16673 28
13339 16671 16674 28
13340 16671 16675 28
13341 16676 16677 28
13342 16676 16678 28
13343 16676 16679 28
13344 16676 16680 28
13345 16681 16682 28
13346 16681 16683 28
13347 16681 16684 28
13348 16681 16685 28
13349 16686 16687 28
13350 16686 16688 28
13351 16686 16689 28
13352 16686 16690 28
13353 16691 16692 28
13354 16691 16693 28
13355 16691 16694 28
13356 16691 16695 28
13357 16696 16697 28
13358 16696 16698 28
13359 16696 16699 28
13360 16696 16700 28
13361 16701 16702 28
13362 16701 16703 28
13363 16701 16704 28
13364 16701 16705 28
13365 16706 16707 28
13366 16706 16708 28
13367 16706 16709 28
13368 16706 16710 28
13369 16711 16712 28
13370 16711 16713 28
13371 16711 16714 28
13372 16711 16715 28
13373 16716 16717 28
13374 16716 16718 28
13375 16716 16719 28
13376 16716 16720 28
13377 16721 16722 28
13378 16721 16723 28
13379 16721 16724 28
13380 16721 16725 28
13381 16726 16727 28
13382 16726 16728 28
13383 16726 16729 28
13384 16726 16730 28
13385 16731 16732 28
13386 16731 16733 28
13387 16731 16734 28
13388 16731 16735 28
13389 16736 16737 28
13390 16736 16738 28
13391 16736 16739 28
13392 16736 16740 28
13393 16741 16742 28
13394 16741 16743 28
13395 16741 16744 28
13396 16741 16745 28
13397 16746 16747 28
13398 16746 16748 28
13399 16746 16749 28
13400 16746 16750 28
13401 16751 16752 28
13402 16751 16753 28
13403 16751 16754 28
13404 16751 16755 28
13405 16756 16757 28
13406 16756 16758 28
13407 16756 16759 28
13408 16756 16760 28
13409 16761 16762 28
13410 16761 16763 28
13411 16761 16764 28
13412 16761 16765 28
13413 16766 16767 28
13414 16766 16768 28
13415 16766 16769 28
13416 16766 16770 28
13417 16771 16772 28
13418 16771 16773 28
13419 16771 16774 28
13420 16771 16775 28
13421 16776 16777 28
13422 16776 16778 28
13423 16776 16779 28
13424 16776 16780 28
13425 16781 16782 28
13426 16781 16783 28
13427 16781 16784 28
13428 16781 16785 28
13429 16786 16787 28
13430 16786 16788 28
13431 16786 16789 28
13432 16786 16790 28
13433 16791 16792 28
13434 16791 16793 28
13435 16791 16794 28
13436 16791 16795 28
13437 16796 16797 28
13438 16796 16798 28
13439 16796 16799 28
13440 16796 16800 28
13441 16801 16802 28
13442 16801 16803 28
13443 16801 16804 28
13444 16801 16805 28
13445 16806 16807 28
13446 16806 16808 28
13447 16806 16809 28
13448 16806 16810 28
13449 16811 16812 28
13450 16811 16813 28
13451 16811 16814 28
13452 16811 16815 28
13453 16816 16817 28
13454 16816 16818 28
13455 16816 16819 28
13456 16816 16820 28
13457 16821 16822 28
13458 16821 16823 28
13459 16821 16824 28
13460 16821 16825 28
13461 16826 16827 28
13462 16826 16828 28
13463 16826 16829 28
13464 16826 16830 28
13465 16831 16832 28
13466 16831 16833 28
13467 16831 16834 28
13468 16831 16835 28
13469 16836 16837 28
13470 16836 16838 28
13471 16836 16839 28
13472 16836 16840 28
13473 16841 16842 28
13474 16841 16843 28
13475 16841 16844 28
13476 16841 16845 28
13477 16846 16847 28
13478 16846 16848 28
13479 16846 16849 28
13480 16846 16850 28
13481 16851 16852 28
13482 16851 16853 28
13483 16851 16854 28
13484 16851 16855 28
13485 16856 16857 28
13486 16856 16858 28
13487 16856 16859 28
13488 16856 16860 28
13489 16861 16862 28
13490 16861 16863 28
13491 16861 16864 28
13492 16861 16865 28
13493 16866 16867 28
13494 16866 16868 28
13495 16866 16869 28
13496 16866 16870 28
13497 16871 16872 28
13498 16871 16873 28
13499 16871 16874 28
13500 16871 16875 28
13501 16876 16877 28
13502 16876 16878 28
13503 16876 16879 28
13504 16876 16880 28
13505 16881 16882 28
13506 16881 16883 28
13507 16881 16884 28
13508 16881 16885 28
13509 16886 16887 28
13510 16886 16888 28
13511 16886 16889 28
13512 16886 16890 28
13513 16891 16892 28
13514 16891 16893 28
13515 16891 16894 28
13516 16891 16895 28
13517 16896 16897 28
13518 16896 16898 28
13519 16896 16899 28
13520 16896 16900 28
13521 16901 16902 28
13522 16901 16903 28
13523 16901 16904 28
13524 16901 16905 28
13525 16906 16907 28
13526 16906 16908 28
13527 16906 16909 28
13528 16906 16910 28
13529 16911 16912 28
13530 16911 16913 28
13531 16911 16914 28
13532 16911 16915 28
13533 16916 16917 28
13534 16916 16918 28
13535 16916 16919 28
13536 16916 16920 28
13537 16921 16922 28
13538 16921 16923 28
13539 16921 16924 28
13540 16921 16925 28
13541 16926 16927 28
13542 16926 16928 28
13543 16926 16929 28
13544 16926 16930 28
13545 16931 16932 28
13546 16931 16933 28
13547 16931 16934 28
13548 16931 16935 28
13549 16936 16937 28
13550 16936 16938 28
13551 16936 16939 28
13552 16936 16940 28
13553 16941 16942 28
13554 16941 16943 28
13555 16941 16944 28
13556 16941 16945 28
13557 16946 16947 28
13558 16946 16948 28
13559 16946 16949 28
13560 16946 16950 28
13561 16951 16952 28
13562 16951 16953 28
13563 16951 16954 28
13564 16951 16955 28
13565 16956 16957 28
13566 16956 16958 28
13567 16956 16959 28
13568 16956 16960 28
13569 16961 16962 28
13570 16961 16963 28
13571 16961 16964 28
13572 16961 16965 28
13573 16966 16967 28
13574 16966 16968 28
13575 16966 16969 28
13576 16966 16970 28
13577 16971 16972 28
13578 16971 16973 28
13579 16971 16974 28
13580 16971 16975 28
13581 16976 16977 28
13582 16976 16978 28
13583 16976 16979 28
13584 16976 16980 28
13585 16981 16982 28
13586 16981 16983 28
13587 16981 16984 28
13588 16981 16985 28
13589 16986 16987 28
13590 16986 16988 28
13591 16986 16989 28
13592 16986 16990 28
13593 16991 16992 28
13594 16991 16993 28
13595 16991 16994 28
13596 16991 16995 28
13597 16996 16997 28
13598 16996 16998 28
13599 16996 16999 28
13600 16996 17000 28
13601 17001 17002 28
13602 17001 17003 28
13603 17001 17004 28
13604 17001 17005 28
13605 17006 17007 28
13606 17006 17008 28
13607 17006 17009 28
13608 17006 17010 28
13609 17011 17012 28
13610 17011 17013 28
13611 17011 17014 28
13612 17011 17015 28
13613 17016 17017 28
13614 17016 17018 28
13615 17016 17019 28
13616 17016 17020 28
13617 17021 17022 28
13618 17021 17023 28
13619 17021 17024 28
13620 17021 17025 28
13621 17026 17027 28
13622 17026 17028 28
13623 17026 17029 28
13624 17026 17030 28
13625 17031 17032 28
13626 17031 17033 28
13627 17031 17034 28
13628 17031 17035 28
13629 17036 17037 28
13630 17036 17038 28
13631 17036 17039 28
13632 17036 17040 28
13633 17041 17042 28
13634 17041 17043 28
13635 17041 17044 28
13636 17041 17045 28
13637 17046 17047 28
13638 17046 17048 28
13639 17046 17049 28
13640 17046 17050 28
13641 17051 17052 28
13642 17051 17053 28
13643 17051 17054 28
13644 17051 17055 28
13645 17056 17057 28
13646 17056 17058 28
13647 17056 17059 28
13648 17056 17060 28
13649 17061 17062 28
13650 17061 17063 28
13651 17061 17064 28
13652 17061 17065 28
13653 17066 17067 28
13654 17066 17068 28
13655 17066 17069 28
13656 17066 17070 28
13657 17071 17072 28
13658 17071 17073 28
13659 17071 17074 28
13660 17071 17075 28
13661 17076 17077 28
13662 17076 17078 28
13663 17076 17079 28
13664 17076 17080 28
13665 17081 17082 28
13666 17081 17083 28
13667 17081 17084 28
13668 17081 17085 28
13669 17086 17087 28
13670 17086 17088 28
13671 17086 17089 28
13672 17086 17090 28
13673 17091 17092 28
13674 17091 17093 28
13675 17091 17094 28
13676 17091 17095 28
13677 17096 17097 28
13678 17096 17098 28
13679 17096 17099 28
13680 17096 17100 28
13681 17101 17102 28
13682 17101 17103 28
13683 17101 17104 28
13684 17101 17105 28
13685 17106 17107 28
13686 17106 17108 28
13687 17106 17109 28
13688 17106 17110 28
13689 17111 17112 28
13690 17111 17113 28
13691 17111 17114 28
13692 17111 17115 28
13693 17116 17117 28
13694 17116 17118 28
13695 17116 17119 28
13696 17116 17120 28
13697 17121 17122 28
13698 17121 17123 28
13699 17121 17124 28
13700 17121 17125 28
13701 17126 17127 28
13702 17126 17128 28
13703 17126 17129 28
13704 17126 17130 28
13705 17131 17132 28
13706 17131 17133 28
13707 17131 17134 28
13708 17131 17135 28
13709 17136 17137 28
13710 17136 17138 28
13711 17136 17139 28
13712 17136 17140 28
13713 17141 17142 28
13714 17141 17143 28
13715 17141 17144 28
13716 17141 17145 28
13717 17146 17147 28
13718 17146 17148 28
13719 17146 17149 28
13720 17146 17150 28
13721 17151 17152 28
13722 17151 17153 28
13723 17151 17154 28
13724 17151 17155 28
13725 17156 17157 28
13726 17156 17158 28
13727 17156 17159 28
13728 17156 17160 28
13729 17161 17162 28
13730 17161 17163 28
13731 17161 17164 28
13732 17161 17165 28
13733 17166 17167 28
13734 17166 17168 28
13735 17166 17169 28
13736 17166 17170 28
13737 17171 17172 28
13738 17171 17173 28
13739 17171 17174 28
13740 17171 17175 28
13741 17176 17177 28
13742 17176 17178 28
13743 17176 17179 28
13744 17176 17180 28
13745 17181 17182 28
13746 17181 17183 28
13747 17181 17184 28
13748 17181 17185 28
13749 17186 17187 28
13750 17186 17188 28
13751 17186 17189 28
13752 17186 17190 28
13753 17191 17192 28
13754 17191 17193 28
13755 17191 17194 28
13756 17191 17195 28
13757 17196 17197 28
13758 17196 17198 28
13759 17196 17199 28
13760 17196 17200 28
13761 17201 17202 28
13762 17201 17203 28
13763 17201 17204 28
13764 17201 17205 28
13765 17206 17207 28
13766 17206 17208 28
13767 17206 17209 28
13768 17206 17210 28
13769 17211 17212 28
13770 17211 17213 28
13771 17211 17214 28
13772 17211 17215 28
13773 17216 17217 28
13774 17216 17218 28
13775 17216 17219 28
13776 17216 17220 28
13777 17221 17222 28
13778 17221 17223 28
13779 17221 17224 28
13780 17221 17225 28
13781 17226 17227 28
13782 17226 17228 28
13783 17226 17229 28
13784 17226 17230 28
13785 17231 17232 28
13786 17231 17233 28
13787 17231 17234 28
13788 17231 17235 28
13789 17236 17237 28
13790 17236 17238 28
13791 17236 17239 28
13792 17236 17240 28
13793 17241 17242 28
13794 17241 17243 28
13795 17241 17244 28
13796 17241 17245 28
13797 17246 17247 28
13798 17246 17248 28
13799 17246 17249 28
13800 17246 17250 28
13801 17251 17252 28
13802 17251 17253 28
13803 17251 17254 28
13804 17251 17255 28
13805 17256 17257 28
13806 17256 17258 28
13807 17256 17259 28
13808 17256 17260 28
13809 17261 17262 28
13810 17261 17263 28
13811 17261 17264 28
13812 17261 17265 28
13813 17266 17267 28
13814 17266 17268 28
13815 17266 17269 28
13816 17266 17270 28
13817 17271 17272 28
13818 17271 17273 28
13819 17271 17274 28
13820 17271 17275 28
13821 17276 17277 28
13822 17276 17278 28
13823 17276 17279 28
13824 17276 17280 28
13825 17281 17282 28
13826 17281 17283 28
13827 17281 17284 28
13828 17281 17285 28
13829 17286 17287 28
13830 17286 17288 28
13831 17286 17289 28
13832 17286 17290 28
13833 17291 17292 28
13834 17291 17293 28
13835 17291 17294 28
13836 17291 17295 28
13837 17296 17297 28
13838 17296 17298 28
13839 17296 17299 28
13840 17296 17300 28
13841 17301 17302 28
13842 17301 17303 28
13843 17301 17304 28
13844 17301 17305 28
13845 17306 17307 28
13846 17306 17308 28
13847 17306 17309 28
13848 17306 17310 28
13849 17311 17312 28
13850 17311 17313 28
13851 17311 17314 28
13852 17311 17315 28
13853 17316 17317 28
13854 17316 17318 28
13855 17316 17319 28
13856 17316 17320 28
13857 17321 17322 28
13858 17321 17323 28
13859 17321 17324 28
13860 17321 17325 28
13861 17326 17327 28
13862 17326 17328 28
13863 17326 17329 28
13864 17326 17330 28
13865 17331 17332 28
13866 17331 17333 28
13867 17331 17334 28
13868 17331 17335 28
13869 17336 17337 28
13870 17336 17338 28
13871 17336 17339 28
13872 17336 17340 28
13873 17341 17342 28
13874 17341 17343 28
13875 17341 17344 28
13876 17341 17345 28
13877 17346 17347 28
13878 17346 17348 28
13879 17346 17349 28
13880 17346 17350 28
13881 17351 17352 28
13882 17351 17353 28
13883 17351 17354 28
13884 17351 17355 28
13885 17356 17357 28
13886 17356 17358 28
13887 17356 17359 28
13888 17356 17360 28
13889 17361 17362 28
13890 17361 17363 28
13891 17361 17364 28
13892 17361 17365 28
13893 17366 17367 28
13894 17366 17368 28
13895 17366 17369 28
13896 17366 17370 28
13897 17371 17372 28
13898 17371 17373 28
13899 17371 17374 28
13900 17371 17375 28
13901 17376 17377 28
13902 17376 17378 28
13903 17376 17379 28
13904 17376 17380 28
13905 17381 17382 28
13906 17381 17383 28
13907 17381 17384 28
13908 17381 17385 28
13909 17386 17387 28
13910 17386 17388 28
13911 17386 17389 28
13912 17386 17390 28
13913 17391 17392 28
13914 17391 17393 28
13915 17391 17394 28
13916 17391 17395 28
13917 17396 17397 28
13918 17396 17398 28
13919 17396 17399 28
13920 17396 17400 28
13921 17401 17402 28
13922 17401 17403 28
13923 17401 17404 28
13924 17401 17405 28
13925 17406 17407 28
13926 17406 17408 28
13927 17406 17409 28
13928 17406 17410 28
13929 17411 17412 28
13930 17411 17413 28
13931 17411 17414 28
13932 17411 17415 28
13933 17416 17417 28
13934 17416 17418 28
13935 17416 17419 28
13936 17416 17420 28
13937 17421 17422 28
13938 17421 17423 28
13939 17421 17424 28
13940 17421 17425 28
13941 17426 17427 28
13942 17426 17428 28
13943 17426 17429 28
13944 17426 17430 28
13945 17431 17432 28
13946 17431 17433 28
13947 17431 17434 28
13948 17431 17435 28
13949 17436 17437 28
13950 17436 17438 28
13951 17436 17439 28
13952 17436 17440 28
13953 17441 17442 28
13954 17441 17443 28
13955 17441 17444 28
13956 17441 17445 28
13957 17446 17447 28
13958 17446 17448 28
13959 17446 17449 28
13960 17446 17450 28
13961 17451 17452 28
13962 17451 17453 28
13963 17451 17454 28
13964 17451 17455 28
13965 17456 17457 28
13966 17456 17458 28
13967 17456 17459 28
13968 17456 17460 28
13969 17461 17462 28
13970 17461 17463 28
13971 17461 17464 28
13972 17461 17465 28
13973 17466 17467 28
13974 17466 17468 28
13975 17466 17469 28
13976 17466 17470 28
13977 17471 17472 28
13978 17471 17473 28
13979 17471 17474 28
13980 17471 17475 28
13981 17476 17477 28
13982 17476 17478 28
13983 17476 17479 28
13984 17476 17480 28
13985 17481 17482 28
13986 17481 17483 28
13987 17481 17484 28
13988 17481 17485 28
13989 17486 17487 28
13990 17486 17488 28
13991 17486 17489 28
13992 17486 17490 28
13993 17491 17492 28
13994 17491 17493 28
13995 17491 17494 28
13996 17491 17495 28
13997 17496 17497 28
13998 17496 17498 28
13999 17496 17499 28
14000 17496 17500 28
14001 17501 17502 28
14002 17501 17503 28
14003 17501 17504 28
14004 17501 17505 28
14005 17506 17507 28
14006 17506 17508 28
14007 17506 17509 28
14008 17506 17510 28
14009 17511 17512 28
14010 17511 17513 28
14011 17511 17514 28
14012 17511 17515 28
14013 17516 17517 28
14014 17516 17518 28
14015 17516 17519 28
14016 17516 17520 28
14017 17521 17522 28
14018 17521 17523 28
14019 17521 17524 28
14020 17521 17525 28
14021 17526 17527 28
14022 17526 17528 28
14023 17526 17529 28
14024 17526 17530 28
14025 17531 17532 28
14026 17531 17533 28
14027 17531 17534 28
14028 17531 17535 28
14029 17536 17537 28
14030 17536 17538 28
14031 17536 17539 28
14032 17536 17540 28
14033 17541 17542 28
14034 17541 17543 28
14035 17541 17544 28
14036 17541 17545 28
14037 17546 17547 28
14038 17546 17548 28
14039 17546 17549 28
14040 17546 17550 28
14041 17551 17552 28
14042 17551 17553 28
14043 17551 17554 28
14044 17551 17555 28
14045 17556 17557 28
14046 17556 17558 28
14047 17556 17559 28
14048 17556 17560 28
14049 17561 17562 28
14050 17561 17563 28
14051 17561 17564 28
14052 17561 17565 28
14053 17566 17567 28
14054 17566 17568 28
14055 17566 17569 28
14056 17566 17570 28
14057 17571 17572 28
14058 17571 17573 28
14059 17571 17574 28
14060 17571 17575 28
14061 17576 17577 28
14062 17576 17578 28
14063 17576 17579 28
14064 17576 17580 28
14065 17581 17582 28
14066 17581 17583 28
14067 17581 17584 28
14068 17581 17585 28
14069 17586 17587 28
14070 17586 17588 28
14071 17586 17589 28
14072 17586 17590 28
14073 17591 17592 28
14074 17591 17593 28
14075 17591 17594 28
14076 17591 17595 28
14077 17596 17597 28
14078 17596 17598 28
14079 17596 17599 28
14080 17596 17600 28
14081 17601 17602 28
14082 17601 17603 28
14083 17601 17604 28
14084 17601 17605 28
14085 17606 17607 28
14086 17606 17608 28
14087 17606 17609 28
14088 17606 17610 28
14089 17611 17612 28
14090 17611 17613 28
14091 17611 17614 28
14092 17611 17615 28
14093 17616 17617 28
14094 17616 17618 28
14095 17616 17619 28
14096 17616 17620 28
14097 17621 17622 28
14098 17621 17623 28
14099 17621 17624 28
14100 17621 17625 28
14101 17626 17627 28
14102 17626 17628 28
14103 17626 17629 28
14104 17626 17630 28
14105 17631 17632 28
14106 17631 17633 28
14107 17631 17634 28
14108 17631 17635 28
14109 17636 17637 28
14110 17636 17638 28
14111 17636 17639 28
14112 17636 17640 28
14113 17641 17642 28
14114 17641 17643 28
14115 17641 17644 28
14116 17641 17645 28
14117 17646 17647 28
14118 17646 17648 28
14119 17646 17649 28
14120 17646 17650 28
14121 17651 17652 28
14122 17651 17653 28
14123 17651 17654 28
14124 17651 17655 28
14125 17656 17657 28
14126 17656 17658 28
14127 17656 17659 28
14128 17656 17660 28
14129 17661 17662 28
14130 17661 17663 28
14131 17661 17664 28
14132 17661 17665 28
14133 17666 17667 28
14134 17666 17668 28
14135 17666 17669 28
14136 17666 17670 28
14137 17671 17672 28
14138 17671 17673 28
14139 17671 17674 28
14140 17671 17675 28
14141 17676 17677 28
14142 17676 17678 28
14143 17676 17679 28
14144 17676 17680 28
14145 17681 17682 28
14146 17681 17683 28
14147 17681 17684 28
14148 17681 17685 28
14149 17686 17687 28
14150 17686 17688 28
14151 17686 17689 28
14152 17686 17690 28
14153 17691 17692 28
14154 17691 17693 28
14155 17691 17694 28
14156 17691 17695 28
14157 17696 17697 28
14158 17696 17698 28
14159 17696 17699 28
14160 17696 17700 28
14161 17701 17702 28
14162 17701 17703 28
14163 17701 17704 28
14164 17701 17705 28
14165 17706 17707 28
14166 17706 17708 28
14167 17706 17709 28
14168 17706 17710 28
14169 17711 17712 28
14170 17711 17713 28
14171 17711 17714 28
14172 17711 17715 28
14173 17716 17717 28
14174 17716 17718 28
14175 17716 17719 28
14176 17716 17720 28
14177 17721 17722 28
14178 17721 17723 28
14179 17721 17724 28
14180 17721 17725 28
14181 17726 17727 28
14182 17726 17728 28
14183 17726 17729 28
14184 17726 17730 28
14185 17731 17732 28
14186 17731 17733 28
14187 17731 17734 28
14188 17731 17735 28
14189 17736 17737 28
14190 17736 17738 28
14191 17736 17739 28
14192 17736 17740 28
14193 17741 17742 28
14194 17741 17743 28
14195 17741 17744 28
14196 17741 17745 28
14197 17746 17747 28
14198 17746 17748 28
14199 17746 17749 28
14200 17746 17750 28
14201 17751 17752 28
14202 17751 17753 28
14203 17751 17754 28
14204 17751 17755 28
14205 17756 17757 28
14206 17756 17758 28
14207 17756 17759 28
14208 17756 17760 28
14209 17761 17762 28
14210 17761 17763 28
14211 17761 17764 28
14212 17761 17765 28
14213 17766 17767 28
14214 17766 17768 28
14215 17766 17769 28
14216 17766 17770 28
14217 17771 17772 28
14218 17771 17773 28
14219 17771 17774 28
14220 17771 17775 28
14221 17776 17777 28
14222 17776 17778 28
14223 17776 17779 28
14224 17776 17780 28
14225 17781 17782 28
14226 17781 17783 28
14227 17781 17784 28
14228 17781 17785 28
14229 17786 17787 28
14230 17786 17788 28
14231 17786 17789 28
14232 17786 17790 28
14233 17791 17792 28
14234 17791 17793 28
14235 17791 17794 28
14236 17791 17795 28
14237 17796 17797 28
14238 17796 17798 28
14239 17796 17799 28
14240 17796 17800 28
14241 17801 17802 28
14242 17801 17803 28
14243 17801 17804 28
14244 17801 17805 28
14245 17806 17807 28
14246 17806 17808 28
14247 17806 17809 28
14248 17806 17810 28
14249 17811 17812 28
14250 17811 17813 28
14251 17811 17814 28
14252 17811 17815 28
14253 17816 17817 28
14254 17816 17818 28
14255 17816 17819 28
14256 17816 17820 28
14257 17821 17822 28
14258 17821 17823 28
14259 17821 17824 28
14260 17821 17825 28
14261 17826 17827 28
14262 17826 17828 28
14263 17826 17829 28
14264 17826 17830 28
14265 17831 17832 28
14266 17831 17833 28
14267 17831 17834 28
14268 17831 17835 28
14269 17836 17837 28
14270 17836 17838 28
14271 17836 17839 28
14272 17836 17840 28
14273 17841 17842 28
14274 17841 17843 28
14275 17841 17844 28
14276 17841 17845 28
14277 17846 17847 28
14278 17846 17848 28
14279 17846 17849 28
14280 17846 17850 28
14281 17851 17852 28
14282 17851 17853 28
14283 17851 17854 28
14284 17851 17855 28
14285 17856 17857 28
14286 17856 17858 28
14287 17856 17859 28
14288 17856 17860 28
14289 17861 17862 28
14290 17861 17863 28
14291 17861 17864 28
14292 17861 17865 28
14293 17866 17867 28
14294 17866 17868 28
14295 17866 17869 28
14296 17866 17870 28
14297 17871 17872 28
14298 17871 17873 28
14299 17871 17874 28
14300 17871 17875 28
14301 17876 17877 28
14302 17876 17878 28
14303 17876 17879 28
14304 17876 17880 28
14305 17881 17882 28
14306 17881 17883 28
14307 17881 17884 28
14308 17881 17885 28
14309 17886 17887 28
14310 17886 17888 28
14311 17886 17889 28
14312 17886 17890 28
14313 17891 17892 28
14314 17891 17893 28
14315 17891 17894 28
14316 17891 17895 28
14317 17896 17897 28
14318 17896 17898 28
14319 17896 17899 28
14320 17896 17900 28
14321 17901 17902 28
14322 17901 17903 28
14323 17901 17904 28
14324 17901 17905 28
14325 17906 17907 28
14326 17906 17908 28
14327 17906 17909 28
14328 17906 17910 28
14329 17911 17912 28
14330 17911 17913 28
14331 17911 17914 28
14332 17911 17915 28
14333 17916 17917 28
14334 17916 17918 28
14335 17916 17919 28
14336 17916 17920 28
14337 17921 17922 28
14338 17921 17923 28
14339 17921 17924 28
14340 17921 17925 28
14341 17926 17927 28
14342 17926 17928 28
14343 17926 17929 28
14344 17926 17930 28
14345 17931 17932 28
14346 17931 17933 28
14347 17931 17934 28
14348 17931 17935 28
14349 17936 17937 28
14350 17936 17938 28
14351 17936 17939 28
14352 17936 17940 28
14353 17941 17942 28
14354 17941 17943 28
14355 17941 17944 28
14356 17941 17945 28
14357 17946 17947 28
14358 17946 17948 28
14359 17946 17949 28
14360 17946 17950 28
14361 17951 17952 28
14362 17951 17953 28
14363 17951 17954 28
14364 17951 17955 28
14365 17956 17957 28
14366 17956 17958 28
14367 17956 17959 28
14368 17956 17960 28
14369 17961 17962 28
14370 17961 17963 28
14371 17961 17964 28
14372 17961 17965 28
14373 17966 17967 28
14374 17966 17968 28
14375 17966 17969 28
14376 17966 17970 28
14377 17971 17972 28
14378 17971 17973 28
14379 17971 17974 28
14380 17971 17975 28
14381 17976 17977 28
14382 17976 17978 28
14383 17976 17979 28
14384 17976 17980 28
14385 17981 17982 28
14386 17981 17983 28
14387 17981 17984 28
14388 17981 17985 28
14389 17986 17987 28
14390 17986 17988 28
14391 17986 17989 28
14392 17986 17990 28
14393 17991 17992 28
14394 17991 17993 28
14395 17991 17994 28
14396 17991 17995 28
14397 17996 17997 28
14398 17996 17998 28
14399 17996 17999 28
14400 17996 18000 28
14401 18001 18002 28
14402 18001 18003 28
14403 18001 18004 28
14404 18001 18005 28
14405 18006 18007 28
14406 18006 18008 28
14407 18006 18009 28
14408 18006 18010 28
14409 18011 18012 28
14410 18011 18013 28
14411 18011 18014 28
14412 18011 18015 28
14413 18016 18017 28
14414 18016 18018 28
14415 18016 18019 28
14416 18016 18020 28
14417 18021 18022 28
14418 18021 18023 28
14419 18021 18024 28
14420 18021 18025 28
14421 18026 18027 28
14422 18026 18028 28
14423 18026 18029 28
14424 18026 18030 28
14425 18031 18032 28
14426 18031 18033 28
14427 18031 18034 28
14428 18031 18035 28
14429 18036 18037 28
14430 18036 18038 28
14431 18036 18039 28
14432 18036 18040 28
14433 18041 18042 28
14434 18041 18043 28
14435 18041 18044 28
14436 18041 18045 28
14437 18046 18047 28
14438 18046 18048 28
14439 18046 18049 28
14440 18046 18050 28
14441 18051 18052 28
14442 18051 18053 28
14443 18051 18054 28
14444 18051 18055 28
14445 18056 18057 28
14446 18056 18058 28
14447 18056 18059 28
14448 18056 18060 28
14449 18061 18062 28
14450 18061 18063 28
14451 18061 18064 28
14452 18061 18065 28
14453 18066 18067 28
14454 18066 18068 28
14455 18066 18069 28
14456 18066 18070 28
14457 18071 18072 28
14458 18071 18073 28
14459 18071 18074 28
14460 18071 18075 28
14461 18076 18077 28
14462 18076 18078 28
14463 18076 18079 28
14464 18076 18080 28
14465 18081 18082 28
14466 18081 18083 28
14467 18081 18084 28
14468 18081 18085 28
14469 18086 18087 28
14470 18086 18088 28
14471 18086 18089 28
14472 18086 18090 28
14473 18091 18092 28
14474 18091 18093 28
14475 18091 18094 28
14476 18091 18095 28
14477 18096 18097 28
14478 18096 18098 28
14479 18096 18099 28
14480 18096 18100 28
14481 18101 18102 28
14482 18101 18103 28
14483 18101 18104 28
14484 18101 18105 28
14485 18106 18107 28
14486 18106 18108 28
14487 18106 18109 28
14488 18106 18110 28
14489 18111 18112 28
14490 18111 18113 28
14491 18111 18114 28
14492 18111 18115 28
14493 18116 18117 28
14494 18116 18118 28
14495 18116 18119 28
14496 18116 18120 28
14497 18121 18122 28
14498 18121 18123 28
14499 18121 18124 28
14500 18121 18125 28
14501 18126 18127 28
14502 18126 18128 28
14503 18126 18129 28
14504 18126 18130 28
14505 18131 18132 28
14506 18131 18133 28
14507 18131 18134 28
14508 18131 18135 28
14509 18136 18137 28
14510 18136 18138 28
14511 18136 18139 28
14512 18136 18140 28
14513 18141 18142 28
14514 18141 18143 28
14515 18141 18144 28
14516 18141 18145 28
14517 18146 18147 28
14518 18146 18148 28
14519 18146 18149 28
14520 18146 18150 28
14521 18151 18152 28
14522 18151 18153 28
14523 18151 18154 28
14524 18151 18155 28
14525 18156 18157 28
14526 18156 18158 28
14527 18156 18159 28
14528 18156 18160 28
14529 18161 18162 28
14530 18161 18163 28
14531 18161 18164 28
14532 18161 18165 28
14533 18166 18167 28
14534 18166 18168 28
14535 18166 18169 28
14536 18166 18170 28
14537 18171 18172 28
14538 18171 18173 28
14539 18171 18174 28
14540 18171 18175 28
14541 18176 18177 28
14542 18176 18178 28
14543 18176 18179 28
14544 18176 18180 28
14545 18181 18182 28
14546 18181 18183 28
14547 18181 18184 28
14548 18181 18185 28
14549 18186 18187 28
14550 18186 18188 28
14551 18186 18189 28
14552 18186 18190 28
14553 18191 18192 28
14554 18191 18193 28
14555 18191 18194 28
14556 18191 18195 28
14557 18196 18197 28
14558 18196 18198 28
14559 18196 18199 28
14560 18196 18200 28
14561 18201 18202 28
14562 18201 18203 28
14563 18201 18204 28
14564 18201 18205 28
14565 18206 18207 28
14566 18206 18208 28
14567 18206 18209 28
14568 18206 18210 28
14569 18211 18212 28
14570 18211 18213 28
14571 18211 18214 28
14572 18211 18215 28
14573 18216 18217 28
14574 18216 18218 28
14575 18216 18219 28
14576 18216 18220 28
14577 18221 18222 28
14578 18221 18223 28
14579 18221 18224 28
14580 18221 18225 28
14581 18226 18227 28
14582 18226 18228 28
14583 18226 18229 28
14584 18226 18230 28
14585 18231 18232 28
14586 18231 18233 28
14587 18231 18234 28
14588 18231 18235 28
14589 18236 18237 28
14590 18236 18238 28
14591 18236 18239 28
14592 18236 18240 28
14593 18241 18242 28
14594 18241 18243 28
14595 18241 18244 28
14596 18241 18245 28
14597 18246 18247 28
14598 18246 18248 28
14599 18246 18249 28
14600 18246 18250 28
14601 18251 18252 28
14602 18251 18253 28
14603 18251 18254 28
14604 18251 18255 28
14605 18256 18257 28
14606 18256 18258 28
14607 18256 18259 28
14608 18256 18260 28
14609 18261 18262 28
14610 18261 18263 28
14611 18261 18264 28
14612 18261 18265 28
14613 18266 18267 28
14614 18266 18268 28
14615 18266 18269 28
14616 18266 18270 28
14617 18271 18272 28
14618 18271 18273 28
14619 18271 18274 28
14620 18271 18275 28
14621 18276 18277 28
14622 18276 18278 28
14623 18276 18279 28
14624 18276 18280 28
14625 18281 18282 28
14626 18281 18283 28
14627 18281 18284 28
14628 18281 18285 28
14629 18286 18287 28
14630 18286 18288 28
14631 18286 18289 28
14632 18286 18290 28
14633 18291 18292 28
14634 18291 18293 28
14635 18291 18294 28
14636 18291 18295 28
14637 18296 18297 28
14638 18296 18298 28
14639 18296 18299 28
14640 18296 18300 28
14641 18301 18302 28
14642 18301 18303 28
14643 18301 18304 28
14644 18301 18305 28
14645 18306 18307 28
14646 18306 18308 28
14647 18306 18309 28
14648 18306 18310 28
14649 18311 18312 28
14650 18311 18313 28
14651 18311 18314 28
14652 18311 18315 28
14653 18316 18317 28
14654 18316 18318 28
14655 18316 18319 28
14656 18316 18320 28
14657 18321 18322 28
14658 18321 18323 28
14659 18321 18324 28
14660 18321 18325 28
14661 18326 18327 28
14662 18326 18328 28
14663 18326 18329 28
14664 18326 18330 28
14665 18331 18332 28
14666 18331 18333 28
14667 18331 18334 28
14668 18331 18335 28
14669 18336 18337 28
14670 18336 18338 28
14671 18336 18339 28
14672 18336 18340 28
14673 18341 18342 28
14674 18341 18343 28
14675 18341 18344 28
14676 18341 18345 28
14677 18346 18347 28
14678 18346 18348 28
14679 18346 18349 28
14680 18346 18350 28
14681 18351 18352 28
14682 18351 18353 28
14683 18351 18354 28
14684 18351 18355 28
14685 18356 18357 28
14686 18356 18358 28
14687 18356 18359 28
14688 18356 18360 28
14689 18361 18362 28
14690 18361 18363 28
14691 18361 18364 28
14692 18361 18365 28
14693 18366 18367 28
14694 18366 18368 28
14695 18366 18369 28
14696 18366 18370 28
14697 18371 18372 28
14698 18371 18373 28
14699 18371 18374 28
14700 18371 18375 28
14701 18376 18377 28
14702 18376 18378 28
14703 18376 18379 28
14704 18376 18380 28
14705 18381 18382 28
14706 18381 18383 28
14707 18381 18384 28
14708 18381 18385 28
14709 18386 18387 28
14710 18386 18388 28
14711 18386 18389 28
14712 18386 18390 28
14713 18391 18392 28
14714 18391 18393 28
14715 18391 18394 28
14716 18391 18395 28
14717 18396 18397 28
14718 18396 18398 28
14719 18396 18399 28
14720 18396 18400 28
14721 18401 18402 28
14722 18401 18403 28
14723 18401 18404 28
14724 18401 18405 28
14725 18406 18407 28
14726 18406 18408 28
14727 18406 18409 28
14728 18406 18410 28
14729 18411 18412 28
14730 18411 18413 28
14731 18411 18414 28
14732 18411 18415 28
14733 18416 18417 28
14734 18416 18418 28
14735 18416 18419 28
14736 18416 18420 28
14737 18421 18422 28
14738 18421 18423 28
14739 18421 18424 28
14740 18421 18425 28
14741 18426 18427 28
14742 18426 18428 28
14743 18426 18429 28
14744 18426 18430 28
14745 18431 18432 28
14746 18431 18433 28
14747 18431 18434 28
14748 18431 18435 28
14749 18436 18437 28
14750 18436 18438 28
14751 18436 18439 28
14752 18436 18440 28
14753 18441 18442 28
14754 18441 18443 28
14755 18441 18444 28
14756 18441 18445 28
14757 18446 18447 28
14758 18446 18448 28
14759 18446 18449 28
14760 18446 18450 28
14761 18451 18452 28
14762 18451 18453 28
14763 18451 18454 28
14764 18451 18455 28
14765 18456 18457 28
14766 18456 18458 28
14767 18456 18459 28
14768 18456 18460 28
14769 18461 18462 28
14770 18461 18463 28
14771 18461 18464 28
14772 18461 18465 28
14773 18466 18467 28
14774 18466 18468 28
14775 18466 18469 28
14776 18466 18470 28
14777 18471 18472 28
14778 18471 18473 28
14779 18471 18474 28
14780 18471 18475 28
14781 18476 18477 28
14782 18476 18478 28
14783 18476 18479 28
14784 18476 18480 28
14785 18481 18482 28
14786 18481 18483 28
14787 18481 18484 28
14788 18481 18485 28
14789 18486 18487 28
14790 18486 18488 28
14791 18486 18489 28
14792 18486 18490 28
14793 18491 18492 28
14794 18491 18493 28
14795 18491 18494 28
14796 18491 18495 28
14797 18496 18497 28
14798 18496 18498 28
14799 18496 18499 28
14800 18496 18500 28
14801 18501 18502 28
14802 18501 18503 28
14803 18501 18504 28
14804 18501 18505 28
14805 18506 18507 28
14806 18506 18508 28
14807 18506 18509 28
14808 18506 18510 28
14809 18511 18512 28
14810 18511 18513 28
14811 18511 18514 28
14812 18511 18515 28
14813 18516 18517 28
14814 18516 18518 28
14815 18516 18519 28
14816 18516 18520 28
14817 18521 18522 28
14818 18521 18523 28
14819 18521 18524 28
14820 18521 18525 28
14821 18526 18527 28
14822 18526 18528 28
14823 18526 18529 28
14824 18526 18530 28
14825 18531 18532 28
14826 18531 18533 28
14827 18531 18534 28
14828 18531 18535 28
14829 18536 18537 28
14830 18536 18538 28
14831 18536 18539 28
14832 18536 18540 28
14833 18541 18542 28
14834 18541 18543 28
14835 18541 18544 28
14836 18541 18545 28
14837 18546 18547 28
14838 18546 18548 28
14839 18546 18549 28
14840 18546 18550 28
14841 18551 18552 28
14842 18551 18553 28
14843 18551 18554 28
14844 18551 18555 28
14845 18556 18557 28
14846 18556 18558 28
14847 18556 18559 28
14848 18556 18560 28
14849 18561 18562 28
14850 18561 18563 28
14851 18561 18564 28
14852 18561 18565 28
14853 18566 18567 28
14854 18566 18568 28
14855 18566 18569 28
14856 18566 18570 28
14857 18571 18572 28
14858 18571 18573 28
14859 18571 18574 28
14860 18571 18575 28
14861 18576 18577 28
14862 18576 18578 28
14863 18576 18579 28
14864 18576 18580 28
14865 18581 18582 28
14866 18581 18583 28
14867 18581 18584 28
14868 18581 18585 28
14869 18586 18587 28
14870 18586 18588 28
14871 18586 18589 28
14872 18586 18590 28
14873 18591 18592 28
14874 18591 18593 28
14875 18591 18594 28
14876 18591 18595 28
14877 18596 18597 28
14878 18596 18598 28
14879 18596 18599 28
14880 18596 18600 28
14881 18601 18602 28
14882 18601 18603 28
14883 18601 18604 28
14884 18601 18605 28
14885 18606 18607 28
14886 18606 18608 28
14887 18606 18609 28
14888 18606 18610 28
14889 18611 18612 28
14890 18611 18613 28
14891 18611 18614 28
14892 18611 18615 28
14893 18616 18617 28
14894 18616 18618 28
14895 18616 18619 28
14896 18616 18620 28
14897 18621 18622 28
14898 18621 18623 28
14899 18621 18624 28
14900 18621 18625 28
14901 18626 18627 28
14902 18626 18628 28
14903 18626 18629 28
14904 18626 18630 28
14905 18631 18632 28
14906 18631 18633 28
14907 18631 18634 28
14908 18631 18635 28
14909 18636 18637 28
14910 18636 18638 28
14911 18636 18639 28
14912 18636 18640 28
14913 18641 18642 28
14914 18641 18643 28
14915 18641 18644 28
14916 18641 18645 28
14917 18646 18647 28
14918 18646 18648 28
14919 18646 18649 28
14920 18646 18650 28
14921 18651 18652 28
14922 18651 18653 28
14923 18651 18654 28
14924 18651 18655 28
14925 18656 18657 28
14926 18656 18658 28
14927 18656 18659 28
14928 18656 18660 28
14929 18661 18662 28
14930 18661 18663 28
14931 18661 18664 28
14932 18661 18665 28
14933 18666 18667 28
14934 18666 18668 28
14935 18666 18669 28
14936 18666 18670 28
14937 18671 18672 28
14938 18671 18673 28
14939 18671 18674 28
14940 18671 18675 28
14941 18676 18677 28
14942 18676 18678 28
14943 18676 18679 28
14944 18676 18680 28
14945 18681 18682 28
14946 18681 18683 28
14947 18681 18684 28
14948 18681 18685 28
14949 18686 18687 28
14950 18686 18688 28
14951 18686 18689 28
14952 18686 18690 28
14953 18691 18692 28
14954 18691 18693 28
14955 18691 18694 28
14956 18691 18695 28
14957 18696 18697 28
14958 18696 18698 28
14959 18696 18699 28
14960 18696 18700 28
14961 18701 18702 28
14962 18701 18703 28
14963 18701 18704 28
14964 18701 18705 28
14965 18706 18707 28
14966 18706 18708 28
14967 18706 18709 28
14968 18706 18710 28
14969 18711 18712 28
14970 18711 18713 28
14971 18711 18714 28
14972 18711 18715 28
14973 18716 18717 28
14974 18716 18718 28
14975 18716 18719 28
14976 18716 18720 28
14977 18721 18722 28
14978 18721 18723 28
14979 18721 18724 28
14980 18721 18725 28
14981 18726 18727 28
14982 18726 18728 28
14983 18726 18729 28
14984 18726 18730 28
14985 18731 18732 28
14986 18731 18733 28
14987 18731 18734 28
14988 18731 18735 28
14989 18736 18737 28
14990 18736 18738 28
14991 18736 18739 28
14992 18736 18740 28
14993 18741 18742 28
14994 18741 18743 28
14995 18741 18744 28
14996 18741 18745 28
14997 18746 18747 28
14998 18746 18748 28
14999 18746 18749 28
15000 18746 18750 28
15001 18751 18752 28
15002 18751 18753 28
15003 18751 18754 28
15004 18751 18755 28
15005 18756 18757 28
15006 18756 18758 28
15007 18756 18759 28
15008 18756 18760 28
15009 18761 18762 28
15010 18761 18763 28
15011 18761 18764 28
15012 18761 18765 28
15013 18766 18767 28
15014 18766 18768 28
15015 18766 18769 28
15016 18766 18770 28
15017 18771 18772 28
15018 18771 18773 28
15019 18771 18774 28
15020 18771 18775 28
15021 18776 18777 28
15022 18776 18778 28
15023 18776 18779 28
15024 18776 18780 28
15025 18781 18782 28
15026 18781 18783 28
15027 18781 18784 28
15028 18781 18785 28
15029 18786 18787 28
15030 18786 18788 28
15031 18786 18789 28
15032 18786 18790 28
15033 18791 18792 28
15034 18791 18793 28
15035 18791 18794 28
15036 18791 18795 28
15037 18796 18797 28
15038 18796 18798 28
15039 18796 18799 28
15040 18796 18800 28
15041 18801 18802 28
15042 18801 18803 28
15043 18801 18804 28
15044 18801 18805 28
15045 18806 18807 28
15046 18806 18808 28
15047 18806 18809 28
15048 18806 18810 28
15049 18811 18812 28
15050 18811 18813 28
15051 18811 18814 28
15052 18811 18815 28
15053 18816 18817 28
15054 18816 18818 28
15055 18816 18819 28
15056 18816 18820 28
15057 18821 18822 28
15058 18821 18823 28
15059 18821 18824 28
15060 18821 18825 28
15061 18826 18827 28
15062 18826 18828 28
15063 18826 18829 28
15064 18826 18830 28
15065 18831 18832 28
15066 18831 18833 28
15067 18831 18834 28
15068 18831 18835 28
15069 18836 18837 28
15070 18836 18838 28
15071 18836 18839 28
15072 18836 18840 28
15073 18841 18842 28
15074 18841 18843 28
15075 18841 18844 28
15076 18841 18845 28
15077 18846 18847 28
15078 18846 18848 28
15079 18846 18849 28
15080 18846 18850 28
15081 18851 18852 28
15082 18851 18853 28
15083 18851 18854 28
15084 18851 18855 28
15085 18856 18857 28
15086 18856 18858 28
15087 18856 18859 28
15088 18856 18860 28
15089 18861 18862 28
15090 18861 18863 28
15091 18861 18864 28
15092 18861 18865 28
15093 18866 18867 28
15094 18866 18868 28
15095 18866 18869 28
15096 18866 18870 28
15097 18871 18872 28
15098 18871 18873 28
15099 18871 18874 28
15100 18871 18875 28
15101 18876 18877 28
15102 18876 18878 28
15103 18876 18879 28
15104 18876 18880 28
15105 18881 18882 28
15106 18881 18883 28
15107 18881 18884 28
15108 18881 18885 28
15109 18886 18887 28
15110 18886 18888 28
15111 18886 18889 28
15112 18886 18890 28
15113 18891 18892 28
15114 18891 18893 28
15115 18891 18894 28
15116 18891 18895 28
15117 18896 18897 28
15118 18896 18898 28
15119 18896 18899 28
15120 18896 18900 28
15121 18901 18902 28
15122 18901 18903 28
15123 18901 18904 28
15124 18901 18905 28
15125 18906 18907 28
15126 18906 18908 28
15127 18906 18909 28
15128 18906 18910 28
15129 18911 18912 28
15130 18911 18913 28
15131 18911 18914 28
15132 18911 18915 28
15133 18916 18917 28
15134 18916 18918 28
15135 18916 18919 28
15136 18916 18920 28
15137 18921 18922 28
15138 18921 18923 28
15139 18921 18924 28
15140 18921 18925 28
15141 18926 18927 28
15142 18926 18928 28
15143 18926 18929 28
15144 18926 18930 28
15145 18931 18932 28
15146 18931 18933 28
15147 18931 18934 28
15148 18931 18935 28
15149 18936 18937 28
15150 18936 18938 28
15151 18936 18939 28
15152 18936 18940 28
15153 18941 18942 28
15154 18941 18943 28
15155 18941 18944 28
15156 18941 18945 28
15157 18946 18947 28
15158 18946 18948 28
15159 18946 18949 28
15160 18946 18950 28
15161 18951 18952 28
15162 18951 18953 28
15163 18951 18954 28
15164 18951 18955 28
15165 18956 18957 28
15166 18956 18958 28
15167 18956 18959 28
15168 18956 18960 28
15169 18961 18962 28
15170 18961 18963 28
15171 18961 18964 28
15172 18961 18965 28
15173 18966 18967 28
15174 18966 18968 28
15175 18966 18969 28
15176 18966 18970 28
15177 18971 18972 28
15178 18971 18973 28
15179 18971 18974 28
15180 18971 18975 28
15181 18976 18977 28
15182 18976 18978 28
15183 18976 18979 28
15184 18976 18980 28
15185 18981 18982 28
15186 18981 18983 28
15187 18981 18984 28
15188 18981 18985 28
15189 18986 18987 28
15190 18986 18988 28
15191 18986 18989 28
15192 18986 18990 28
15193 18991 18992 28
15194 18991 18993 28
15195 18991 18994 28
15196 18991 18995 28
15197 18996 18997 28
15198 18996 18998 28
15199 18996 18999 28
15200 18996 19000 28
15201 19001 19002 28
15202 19001 19003 28
15203 19001 19004 28
15204 19001 19005 28
15205 19006 19007 28
15206 19006 19008 28
15207 19006 19009 28
15208 19006 19010 28
15209 19011 19012 28
15210 19011 19013 28
15211 19011 19014 28
15212 19011 19015 28
15213 19016 19017 28
15214 19016 19018 28
15215 19016 19019 28
15216 19016 19020 28
15217 19021 19022 28
15218 19021 19023 28
15219 19021 19024 28
15220 19021 19025 28
15221 19026 19027 28
15222 19026 19028 28
15223 19026 19029 28
15224 19026 19030 28
15225 19031 19032 28
15226 19031 19033 28
15227 19031 19034 28
15228 19031 19035 28
15229 19036 19037 28
15230 19036 19038 28
15231 19036 19039 28
15232 19036 19040 28
15233 19041 19042 28
15234 19041 19043 28
15235 19041 19044 28
15236 19041 19045 28
15237 19046 19047 28
15238 19046 19048 28
15239 19046 19049 28
15240 19046 19050 28
15241 19051 19052 28
15242 19051 19053 28
15243 19051 19054 28
15244 19051 19055 28
15245 19056 19057 28
15246 19056 19058 28
15247 19056 19059 28
15248 19056 19060 28
15249 19061 19062 28
15250 19061 19063 28
15251 19061 19064 28
15252 19061 19065 28
15253 19066 19067 28
15254 19066 19068 28
15255 19066 19069 28
15256 19066 19070 28
15257 19071 19072 28
15258 19071 19073 28
15259 19071 19074 28
15260 19071 19075 28
15261 19076 19077 28
15262 19076 19078 28
15263 19076 19079 28
15264 19076 19080 28
15265 19081 19082 28
15266 19081 19083 28
15267 19081 19084 28
15268 19081 19085 28
15269 19086 19087 28
15270 19086 19088 28
15271 19086 19089 28
15272 19086 19090 28
15273 19091 19092 28
15274 19091 19093 28
15275 19091 19094 28
15276 19091 19095 28
15277 19096 19097 28
15278 19096 19098 28
15279 19096 19099 28
15280 19096 19100 28
15281 19101 19102 28
15282 19101 19103 28
15283 19101 19104 28
15284 19101 19105 28
15285 19106 19107 28
15286 19106 19108 28
15287 19106 19109 28
15288 19106 19110 28
15289 19111 19112 28
15290 19111 19113 28
15291 19111 19114 28
15292 19111 19115 28
15293 19116 19117 28
15294 19116 19118 28
15295 19116 19119 28
15296 19116 19120 28
15297 19121 19122 28
15298 19121 19123 28
15299 19121 19124 28
15300 19121 19125 28
15301 19126 19127 28
15302 19126 19128 28
15303 19126 19129 28
15304 19126 19130 28
15305 19131 19132 28
15306 19131 19133 28
15307 19131 19134 28
15308 19131 19135 28
15309 19136 19137 28
15310 19136 19138 28
15311 19136 19139 28
15312 19136 19140 28
15313 19141 19142 28
15314 19141 19143 28
15315 19141 19144 28
15316 19141 19145 28
15317 19146 19147 28
15318 19146 19148 28
15319 19146 19149 28
15320 19146 19150 28
15321 19151 19152 28
15322 19151 19153 28
15323 19151 19154 28
15324 19151 19155 28
15325 19156 19157 28
15326 19156 19158 28
15327 19156 19159 28
15328 19156 19160 28
15329 19161 19162 28
15330 19161 19163 28
15331 19161 19164 28
15332 19161 19165 28
15333 19166 19167 28
15334 19166 19168 28
15335 19166 19169 28
15336 19166 19170 28
15337 19171 19172 28
15338 19171 19173 28
15339 19171 19174 28
15340 19171 19175 28
15341 19176 19177 28
15342 19176 19178 28
15343 19176 19179 28
15344 19176 19180 28
15345 19181 19182 28
15346 19181 19183 28
15347 19181 19184 28
15348 19181 19185 28
15349 19186 19187 28
15350 19186 19188 28
15351 19186 19189 28
15352 19186 19190 28
15353 19191 19192 28
15354 19191 19193 28
15355 19191 19194 28
15356 19191 19195 28
15357 19196 19197 28
15358 19196 19198 28
15359 19196 19199 28
15360 19196 19200 28
15361 19201 19202 28
15362 19201 19203 28
15363 19201 19204 28
15364 19201 19205 28
15365 19206 19207 28
15366 19206 19208 28
15367 19206 19209 28
15368 19206 19210 28
15369 19211 19212 28
15370 19211 19213 28
15371 19211 19214 28
15372 19211 19215 28
15373 19216 19217 28
15374 19216 19218 28
15375 19216 19219 28
15376 19216 19220 28
15377 19221 19222 28
15378 19221 19223 28
15379 19221 19224 28
15380 19221 19225 28
15381 19226 19227 28
15382 19226 19228 28
15383 19226 19229 28
15384 19226 19230 28
15385 19231 19232 28
15386 19231 19233 28
15387 19231 19234 28
15388 19231 19235 28
15389 19236 19237 28
15390 19236 19238 28
15391 19236 19239 28
15392 19236 19240 28
15393 19241 19242 28
15394 19241 19243 28
15395 19241 19244 28
15396 19241 19245 28
15397 19246 19247 28
15398 19246 19248 28
15399 19246 19249 28
15400 19246 19250 28
15401 19251 19252 28
15402 19251 19253 28
15403 19251 19254 28
15404 19251 19255 28
15405 19256 19257 28
15406 19256 19258 28
15407 19256 19259 28
15408 19256 19260 28
15409 19261 19262 28
15410 19261 19263 28
15411 19261 19264 28
15412 19261 19265 28
15413 19266 19267 28
15414 19266 19268 28
15415 19266 19269 28
15416 19266 19270 28
15417 19271 19272 28
15418 19271 19273 28
15419 19271 19274 28
15420 19271 19275 28
15421 19276 19277 28
15422 19276 19278 28
15423 19276 19279 28
15424 19276 19280 28
15425 19281 19282 28
15426 19281 19283 28
15427 19281 19284 28
15428 19281 19285 28
15429 19286 19287 28
15430 19286 19288 28
15431 19286 19289 28
15432 19286 19290 28
15433 19291 19292 28
15434 19291 19293 28
15435 19291 19294 28
15436 19291 19295 28
15437 19296 19297 28
15438 19296 19298 28
15439 19296 19299 28
15440 19296 19300 28
15441 19301 19302 28
15442 19301 19303 28
15443 19301 19304 28
15444 19301 19305 28
15445 19306 19307 28
15446 19306 19308 28
15447 19306 19309 28
15448 19306 19310 28
15449 19311 19312 28
15450 19311 19313 28
15451 19311 19314 28
15452 19311 19315 28
15453 19316 19317 28
15454 19316 19318 28
15455 19316 19319 28
15456 19316 19320 28
15457 19321 19322 28
15458 19321 19323 28
15459 19321 19324 28
15460 19321 19325 28
15461 19326 19327 28
15462 19326 19328 28
15463 19326 19329 28
15464 19326 19330 28
15465 19331 19332 28
15466 19331 19333 28
15467 19331 19334 28
15468 19331 19335 28
15469 19336 19337 28
15470 19336 19338 28
15471 19336 19339 28
15472 19336 19340 28
15473 19341 19342 28
15474 19341 19343 28
15475 19341 19344 28
15476 19341 19345 28
15477 19346 19347 28
15478 19346 19348 28
15479 19346 19349 28
15480 19346 19350 28
15481 19351 19352 28
15482 19351 19353 28
15483 19351 19354 28
15484 19351 19355 28
15485 19356 19357 28
15486 19356 19358 28
15487 19356 19359 28
15488 19356 19360 28
15489 19361 19362 28
15490 19361 19363 28
15491 19361 19364 28
15492 19361 19365 28
15493 19366 19367 28
15494 19366 19368 28
15495 19366 19369 28
15496 19366 19370 28
15497 19371 19372 28
15498 19371 19373 28
15499 19371 19374 28
15500 19371 19375 28
15501 19376 19377 28
15502 19376 19378 28
15503 19376 19379 28
15504 19376 19380 28
15505 19381 19382 28
15506 19381 19383 28
15507 19381 19384 28
15508 19381 19385 28
15509 19386 19387 28
15510 19386 19388 28
15511 19386 19389 28
15512 19386 19390 28
15513 19391 19392 28
15514 19391 19393 28
15515 19391 19394 28
15516 19391 19395 28
15517 19396 19397 28
15518 19396 19398 28
15519 19396 19399 28
15520 19396 19400 28
15521 19401 19402 28
15522 19401 19403 28
15523 19401 19404 28
15524 19401 19405 28
15525 19406 19407 28
15526 19406 19408 28
15527 19406 19409 28
15528 19406 19410 28
15529 19411 19412 28
15530 19411 19413 28
15531 19411 19414 28
15532 19411 19415 28
15533 19416 19417 28
15534 19416 19418 28
15535 19416 19419 28
15536 19416 19420 28
15537 19421 19422 28
15538 19421 19423 28
15539 19421 19424 28
15540 19421 19425 28
15541 19426 19427 28
15542 19426 19428 28
15543 19426 19429 28
15544 19426 19430 28
15545 19431 19432 28
15546 19431 19433 28
15547 19431 19434 28
15548 19431 19435 28
15549 19436 19437 28
15550 19436 19438 28
15551 19436 19439 28
15552 19436 19440 28
15553 19441 19442 28
15554 19441 19443 28
15555 19441 19444 28
15556 19441 19445 28
15557 19446 19447 28
15558 19446 19448 28
15559 19446 19449 28
15560 19446 19450 28
15561 19451 19452 28
15562 19451 19453 28
15563 19451 19454 28
15564 19451 19455 28
15565 19456 19457 28
15566 19456 19458 28
15567 19456 19459 28
15568 19456 19460 28
15569 19461 19462 28
15570 19461 19463 28
15571 19461 19464 28
15572 19461 19465 28
15573 19466 19467 28
15574 19466 19468 28
15575 19466 19469 28
15576 19466 19470 28
15577 19471 19472 28
15578 19471 19473 28
15579 19471 19474 28
15580 19471 19475 28
15581 19476 19477 28
15582 19476 19478 28
15583 19476 19479 28
15584 19476 19480 28
15585 19481 19482 28
15586 19481 19483 28
15587 19481 19484 28
15588 19481 19485 28
15589 19486 19487 28
15590 19486 19488 28
15591 19486 19489 28
15592 19486 19490 28
15593 19491 19492 28
15594 19491 19493 28
15595 19491 19494 28
15596 19491 19495 28
15597 19496 19497 28
15598 19496 19498 28
15599 19496 19499 28
15600 19496 19500 28
15601 19501 19502 28
15602 19501 19503 28
15603 19501 19504 28
15604 19501 19505 28
15605 19506 19507 28
15606 19506 19508 28
15607 19506 19509 28
15608 19506 19510 28
15609 19511 19512 28
15610 19511 19513 28
15611 19511 19514 28
15612 19511 19515 28
15613 19516 19517 28
15614 19516 19518 28
15615 19516 19519 28
15616 19516 19520 28
15617 19521 19522 28
15618 19521 19523 28
15619 19521 19524 28
15620 19521 19525 28
15621 19526 19527 28
15622 19526 19528 28
15623 19526 19529 28
15624 19526 19530 28
15625 19531 19532 28
15626 19531 19533 28
15627 19531 19534 28
15628 19531 19535 28
15629 19536 19537 28
15630 19536 19538 28
15631 19536 19539 28
15632 19536 19540 28
15633 19541 19542 28
15634 19541 19543 28
15635 19541 19544 28
15636 19541 19545 28
15637 19546 19547 28
15638 19546 19548 28
15639 19546 19549 28
15640 19546 19550 28
15641 19551 19552 28
15642 19551 19553 28
15643 19551 19554 28
15644 19551 19555 28
15645 19556 19557 28
15646 19556 19558 28
15647 19556 19559 28
15648 19556 19560 28
15649 19561 19562 28
15650 19561 19563 28
15651 19561 19564 28
15652 19561 19565 28
15653 19566 19567 28
15654 19566 19568 28
15655 19566 19569 28
15656 19566 19570 28
15657 19571 19572 28
15658 19571 19573 28
15659 19571 19574 28
15660 19571 19575 28
15661 19576 19577 28
15662 19576 19578 28
15663 19576 19579 28
15664 19576 19580 28
15665 19581 19582 28
15666 19581 19583 28
15667 19581 19584 28
15668 19581 19585 28
15669 19586 19587 28
15670 19586 19588 28
15671 19586 19589 28
15672 19586 19590 28
15673 19591 19592 28
15674 19591 19593 28
15675 19591 19594 28
15676 19591 19595 28
15677 19596 19597 28
15678 19596 19598 28
15679 19596 19599 28
15680 19596 19600 28
15681 19601 19602 28
15682 19601 19603 28
15683 19601 19604 28
15684 19601 19605 28
15685 19606 19607 28
15686 19606 19608 28
15687 19606 19609 28
15688 19606 19610 28
15689 19611 19612 28
15690 19611 19613 28
15691 19611 19614 28
15692 19611 19615 28
15693 19616 19617 28
15694 19616 19618 28
15695 19616 19619 28
15696 19616 19620 28
15697 19621 19622 28
15698 19621 19623 28
15699 19621 19624 28
15700 19621 19625 28
15701 19626 19627 28
15702 19626 19628 28
15703 19626 19629 28
15704 19626 19630 28
15705 19631 19632 28
15706 19631 19633 28
15707 19631 19634 28
15708 19631 19635 28
15709 19636 19637 28
15710 19636 19638 28
15711 19636 19639 28
15712 19636 19640 28
15713 19641 19642 28
15714 19641 19643 28
15715 19641 19644 28
15716 19641 19645 28
15717 19646 19647 28
15718 19646 19648 28
15719 19646 19649 28
15720 19646 19650 28
15721 19651 19652 28
15722 19651 19653 28
15723 19651 19654 28
15724 19651 19655 28
15725 19656 19657 28
15726 19656 19658 28
15727 19656 19659 28
15728 19656 19660 28
15729 19661 19662 28
15730 19661 19663 28
15731 19661 19664 28
15732 19661 19665 28
15733 19666 19667 28
15734 19666 19668 28
15735 19666 19669 28
15736 19666 19670 28
15737 19671 19672 28
15738 19671 19673 28
15739 19671 19674 28
15740 19671 19675 28
15741 19676 19677 28
15742 19676 19678 28
15743 19676 19679 28
15744 19676 19680 28
15745 19681 19682 28
15746 19681 19683 28
15747 19681 19684 28
15748 19681 19685 28
15749 19686 19687 28
15750 19686 19688 28
15751 19686 19689 28
15752 19686 19690 28
15753 19691 19692 28
15754 19691 19693 28
15755 19691 19694 28
15756 19691 19695 28
15757 19696 19697 28
15758 19696 19698 28
15759 19696 19699 28
15760 19696 19700 28
15761 19701 19702 28
15762 19701 19703 28
15763 19701 19704 28
15764 19701 19705 28
15765 19706 19707 28
15766 19706 19708 28
15767 19706 19709 28
15768 19706 19710 28
15769 19711 19712 28
15770 19711 19713 28
15771 19711 19714 28
15772 19711 19715 28
15773 19716 19717 28
15774 19716 19718 28
15775 19716 19719 28
15776 19716 19720 28
15777 19721 19722 28
15778 19721 19723 28
15779 19721 19724 28
15780 19721 19725 28
15781 19726 19727 28
15782 19726 19728 28
15783 19726 19729 28
15784 19726 19730 28
15785 19731 19732 28
15786 19731 19733 28
15787 19731 19734 28
15788 19731 19735 28
15789 19736 19737 28
15790 19736 19738 28
15791 19736 19739 28
15792 19736 19740 28
15793 19741 19742 28
15794 19741 19743 28
15795 19741 19744 28
15796 19741 19745 28
15797 19746 19747 28
15798 19746 19748 28
15799 19746 19749 28
15800 19746 19750 28
15801 19751 19752 28
15802 19751 19753 28
15803 19751 19754 28
15804 19751 19755 28
15805 19756 19757 28
15806 19756 19758 28
15807 19756 19759 28
15808 19756 19760 28
15809 19761 19762 28
15810 19761 19763 28
15811 19761 19764 28
15812 19761 19765 28
15813 19766 19767 28
15814 19766 19768 28
15815 19766 19769 28
15816 19766 19770 28
15817 19771 19772 28
15818 19771 19773 28
15819 19771 19774 28
15820 19771 19775 28
15821 19776 19777 28
15822 19776 19778 28
15823 19776 19779 28
15824 19776 19780 28
15825 19781 19782 28
15826 19781 19783 28
15827 19781 19784 28
15828 19781 19785 28
15829 19786 19787 28
15830 19786 19788 28
15831 19786 19789 28
15832 19786 19790 28
15833 19791 19792 28
15834 19791 19793 28
15835 19791 19794 28
15836 19791 19795 28
15837 19796 19797 28
15838 19796 19798 28
15839 19796 19799 28
15840 19796 19800 28
15841 19801 19802 28
15842 19801 19803 28
15843 19801 19804 28
15844 19801 19805 28
15845 19806 19807 28
15846 19806 19808 28
15847 19806 19809 28
15848 19806 19810 28
15849 19811 19812 28
15850 19811 19813 28
15851 19811 19814 28
15852 19811 19815 28
15853 19816 19817 28
15854 19816 19818 28
15855 19816 19819 28
15856 19816 19820 28
15857 19821 19822 28
15858 19821 19823 28
15859 19821 19824 28
15860 19821 19825 28
15861 19826 19827 28
15862 19826 19828 28
15863 19826 19829 28
15864 19826 19830 28
15865 19831 19832 28
15866 19831 19833 28
15867 19831 19834 28
15868 19831 19835 28
15869 19836 19837 28
15870 19836 19838 28
15871 19836 19839 28
15872 19836 19840 28
15873 19841 19842 28
15874 19841 19843 28
15875 19841 19844 28
15876 19841 19845 28
15877 19846 19847 28
15878 19846 19848 28
15879 19846 19849 28
15880 19846 19850 28
15881 19851 19852 28
15882 19851 19853 28
15883 19851 19854 28
15884 19851 19855 28
15885 19856 19857 28
15886 19856 19858 28
15887 19856 19859 28
15888 19856 19860 28
15889 19861 19862 28
15890 19861 19863 28
15891 19861 19864 28
15892 19861 19865 28
15893 19866 19867 28
15894 19866 19868 28
15895 19866 19869 28
15896 19866 19870 28
15897 19871 19872 28
15898 19871 19873 28
15899 19871 19874 28
15900 19871 19875 28
15901 19876 19877 28
15902 19876 19878 28
15903 19876 19879 28
15904 19876 19880 28
15905 19881 19882 28
15906 19881 19883 28
15907 19881 19884 28
15908 19881 19885 28
15909 19886 19887 28
15910 19886 19888 28
15911 19886 19889 28
15912 19886 19890 28
15913 19891 19892 28
15914 19891 19893 28
15915 19891 19894 28
15916 19891 19895 28
15917 19896 19897 28
15918 19896 19898 28
15919 19896 19899 28
15920 19896 19900 28
15921 19901 19902 28
15922 19901 19903 28
15923 19901 19904 28
15924 19901 19905 28
15925 19906 19907 28
15926 19906 19908 28
15927 19906 19909 28
15928 19906 19910 28
15929 19911 19912 28
15930 19911 19913 28
15931 19911 19914 28
15932 19911 19915 28
15933 19916 19917 28
15934 19916 19918 28
15935 19916 19919 28
15936 19916 19920 28
15937 19921 19922 28
15938 19921 19923 28
15939 19921 19924 28
15940 19921 19925 28
15941 19926 19927 28
15942 19926 19928 28
15943 19926 19929 28
15944 19926 19930 28
15945 19931 19932 28
15946 19931 19933 28
15947 19931 19934 28
15948 19931 19935 28
15949 19936 19937 28
15950 19936 19938 28
15951 19936 19939 28
15952 19936 19940 28
15953 19941 19942 28
15954 19941 19943 28
15955 19941 19944 28
15956 19941 19945 28
15957 19946 19947 28
15958 19946 19948 28
15959 19946 19949 28
15960 19946 19950 28
15961 19951 19952 28
15962 19951 19953 28
15963 19951 19954 28
15964 19951 19955 28
15965 19956 19957 28
15966 19956 19958 28
15967 19956 19959 28
15968 19956 19960 28
15969 19961 19962 28
15970 19961 19963 28
15971 19961 19964 28
15972 19961 19965 28
15973 19966 19967 28
15974 19966 19968 28
15975 19966 19969 28
15976 19966 19970 28
15977 19971 19972 28
15978 19971 19973 28
15979 19971 19974 28
15980 19971 19975 28
15981 19976 19977 28
15982 19976 19978 28
15983 19976 19979 28
15984 19976 19980 28
15985 19981 19982 28
15986 19981 19983 28
15987 19981 19984 28
15988 19981 19985 28
15989 19986 19987 28
15990 19986 19988 28
15991 19986 19989 28
15992 19986 19990 28
15993 19991 19992 28
15994 19991 19993 28
15995 19991 19994 28
15996 19991 19995 28
15997 19996 19997 28
15998 19996 19998 28
15999 19996 19999 28
16000 19996 20000 28
16001 20001 20002 28
16002 20001 20003 28
16003 20001 20004 28
16004 20001 20005 28
16005 20006 20007 28
16006 20006 20008 28
16007 20006 20009 28
16008 20006 20010 28
16009 20011 20012 28
16010 20011 20013 28
16011 20011 20014 28
16012 20011 20015 28
16013 20016 20017 28
16014 20016 20018 28
16015 20016 20019 28
16016 20016 20020 28
16017 20021 20022 28
16018 20021 20023 28
16019 20021 20024 28
16020 20021 20025 28
16021 20026 20027 28
16022 20026 20028 28
16023 20026 20029 28
16024 20026 20030 28
16025 20031 20032 28
16026 20031 20033 28
16027 20031 20034 28
16028 20031 20035 28
16029 20036 20037 28
16030 20036 20038 28
16031 20036 20039 28
16032 20036 20040 28
16033 20041 20042 28
16034 20041 20043 28
16035 20041 20044 28
16036 20041 20045 28
16037 20046 20047 28
16038 20046 20048 28
16039 20046 20049 28
16040 20046 20050 28
16041 20051 20052 28
16042 20051 20053 28
16043 20051 20054 28
16044 20051 20055 28
16045 20056 20057 28
16046 20056 20058 28
16047 20056 20059 28
16048 20056 20060 28
16049 20061 20062 28
16050 20061 20063 28
16051 20061 20064 28
16052 20061 20065 28
16053 20066 20067 28
16054 20066 20068 28
16055 20066 20069 28
16056 20066 20070 28
16057 20071 20072 28
16058 20071 20073 28
16059 20071 20074 28
16060 20071 20075 28
16061 20076 20077 28
16062 20076 20078 28
16063 20076 20079 28
16064 20076 20080 28
16065 20081 20082 28
16066 20081 20083 28
16067 20081 20084 28
16068 20081 20085 28
16069 20086 20087 28
16070 20086 20088 28
16071 20086 20089 28
16072 20086 20090 28
16073 20091 20092 28
16074 20091 20093 28
16075 20091 20094 28
16076 20091 20095 28
16077 20096 20097 28
16078 20096 20098 28
16079 20096 20099 28
16080 20096 20100 28
16081 20101 20102 28
16082 20101 20103 28
16083 20101 20104 28
16084 20101 20105 28
16085 20106 20107 28
16086 20106 20108 28
16087 20106 20109 28
16088 20106 20110 28
16089 20111 20112 28
16090 20111 20113 28
16091 20111 20114 28
16092 20111 20115 28
16093 20116 20117 28
16094 20116 20118 28
16095 20116 20119 28
16096 20116 20120 28
16097 20121 20122 28
16098 20121 20123 28
16099 20121 20124 28
16100 20121 20125 28
16101 20126 20127 28
16102 20126 20128 28
16103 20126 20129 28
16104 20126 20130 28
16105 20131 20132 28
16106 20131 20133 28
16107 20131 20134 28
16108 20131 20135 28
16109 20136 20137 28
16110 20136 20138 28
16111 20136 20139 28
16112 20136 20140 28
16113 20141 20142 28
16114 20141 20143 28
16115 20141 20144 28
16116 20141 20145 28
16117 20146 20147 28
16118 20146 20148 28
16119 20146 20149 28
16120 20146 20150 28
16121 20151 20152 28
16122 20151 20153 28
16123 20151 20154 28
16124 20151 20155 28
16125 20156 20157 28
16126 20156 20158 28
16127 20156 20159 28
16128 20156 20160 28
16129 20161 20162 28
16130 20161 20163 28
16131 20161 20164 28
16132 20161 20165 28
16133 20166 20167 28
16134 20166 20168 28
16135 20166 20169 28
16136 20166 20170 28
16137 20171 20172 28
16138 20171 20173 28
16139 20171 20174 28
16140 20171 20175 28
16141 20176 20177 28
16142 20176 20178 28
16143 20176 20179 28
16144 20176 20180 28
16145 20181 20182 28
16146 20181 20183 28
16147 20181 20184 28
16148 20181 20185 28
16149 20186 20187 28
16150 20186 20188 28
16151 20186 20189 28
16152 20186 20190 28
16153 20191 20192 28
16154 20191 20193 28
16155 20191 20194 28
16156 20191 20195 28
16157 20196 20197 28
16158 20196 20198 28
16159 20196 20199 28
16160 20196 20200 28
16161 20201 20202 28
16162 20201 20203 28
16163 20201 20204 28
16164 20201 20205 28
16165 20206 20207 28
16166 20206 20208 28
16167 20206 20209 28
16168 20206 20210 28
16169 20211 20212 28
16170 20211 20213 28
16171 20211 20214 28
16172 20211 20215 28
16173 20216 20217 28
16174 20216 20218 28
16175 20216 20219 28
16176 20216 20220 28
16177 20221 20222 28
16178 20221 20223 28
16179 20221 20224 28
16180 20221 20225 28
16181 20226 20227 28
16182 20226 20228 28
16183 20226 20229 28
16184 20226 20230 28
16185 20231 20232 28
16186 20231 20233 28
16187 20231 20234 28
16188 20231 20235 28
16189 20236 20237 28
16190 20236 20238 28
16191 20236 20239 28
16192 20236 20240 28
16193 20241 20242 28
16194 20241 20243 28
16195 20241 20244 28
16196 20241 20245 28
16197 20246 20247 28
16198 20246 20248 28
16199 20246 20249 28
16200 20246 20250 28
16201 20251 20252 28
16202 20251 20253 28
16203 20251 20254 28
16204 20251 20255 28
16205 20256 20257 28
16206 20256 20258 28
16207 20256 20259 28
16208 20256 20260 28
16209 20261 20262 28
16210 20261 20263 28
16211 20261 20264 28
16212 20261 20265 28
16213 20266 20267 28
16214 20266 20268 28
16215 20266 20269 28
16216 20266 20270 28
16217 20271 20272 28
16218 20271 20273 28
16219 20271 20274 28
16220 20271 20275 28
16221 20276 20277 28
16222 20276 20278 28
16223 20276 20279 28
16224 20276 20280 28
16225 20281 20282 28
16226 20281 20283 28
16227 20281 20284 28
16228 20281 20285 28
16229 20286 20287 28
16230 20286 20288 28
16231 20286 20289 28
16232 20286 20290 28
16233 20291 20292 28
16234 20291 20293 28
16235 20291 20294 28
16236 20291 20295 28
16237 20296 20297 28
16238 20296 20298 28
16239 20296 20299 28
16240 20296 20300 28
16241 20301 20302 28
16242 20301 20303 28
16243 20301 20304 28
16244 20301 20305 28
16245 20306 20307 28
16246 20306 20308 28
16247 20306 20309 28
16248 20306 20310 28
16249 20311 20312 28
16250 20311 20313 28
16251 20311 20314 28
16252 20311 20315 28
16253 20316 20317 28
16254 20316 20318 28
16255 20316 20319 28
16256 20316 20320 28
16257 20321 20322 28
16258 20321 20323 28
16259 20321 20324 28
16260 20321 20325 28
16261 20326 20327 28
16262 20326 20328 28
16263 20326 20329 28
16264 20326 20330 28
16265 20331 20332 28
16266 20331 20333 28
16267 20331 20334 28
16268 20331 20335 28
16269 20336 20337 28
16270 20336 20338 28
16271 20336 20339 28
16272 20336 20340 28
16273 20341 20342 28
16274 20341 20343 28
16275 20341 20344 28
16276 20341 20345 28
16277 20346 20347 28
16278 20346 20348 28
16279 20346 20349 28
16280 20346 20350 28
16281 20351 20352 28
16282 20351 20353 28
16283 20351 20354 28
16284 20351 20355 28
16285 20356 20357 28
16286 20356 20358 28
16287 20356 20359 28
16288 20356 20360 28
16289 20361 20362 28
16290 20361 20363 28
16291 20361 20364 28
16292 20361 20365 28
16293 20366 20367 28
16294 20366 20368 28
16295 20366 20369 28
16296 20366 20370 28
16297 20371 20372 28
16298 20371 20373 28
16299 20371 20374 28
16300 20371 20375 28
16301 20376 20377 28
16302 20376 20378 28
16303 20376 20379 28
16304 20376 20380 28
16305 20381 20382 28
16306 20381 20383 28
16307 20381 20384 28
16308 20381 20385 28
16309 20386 20387 28
16310 20386 20388 28
16311 20386 20389 28
16312 20386 20390 28
16313 20391 20392 28
16314 20391 20393 28
16315 20391 20394 28
16316 20391 20395 28
16317 20396 20397 28
16318 20396 20398 28
16319 20396 20399 28
16320 20396 20400 28
16321 20401 20402 28
16322 20401 20403 28
16323 20401 20404 28
16324 20401 20405 28
16325 20406 20407 28
16326 20406 20408 28
16327 20406 20409 28
16328 20406 20410 28
16329 20411 20412 28
16330 20411 20413 28
16331 20411 20414 28
16332 20411 20415 28
16333 20416 20417 28
16334 20416 20418 28
16335 20416 20419 28
16336 20416 20420 28
16337 20421 20422 28
16338 20421 20423 28
16339 20421 20424 28
16340 20421 20425 28
16341 20426 20427 28
16342 20426 20428 28
16343 20426 20429 28
16344 20426 20430 28
16345 20431 20432 28
16346 20431 20433 28
16347 20431 20434 28
16348 20431 20435 28
16349 20436 20437 28
16350 20436 20438 28
16351 20436 20439 28
16352 20436 20440 28
16353 20441 20442 28
16354 20441 20443 28
16355 20441 20444 28
16356 20441 20445 28
16357 20446 20447 28
16358 20446 20448 28
16359 20446 20449 28
16360 20446 20450 28
16361 20451 20452 28
16362 20451 20453 28
16363 20451 20454 28
16364 20451 20455 28
16365 20456 20457 28
16366 20456 20458 28
16367 20456 20459 28
16368 20456 20460 28
16369 20461 20462 28
16370 20461 20463 28
16371 20461 20464 28
16372 20461 20465 28
16373 20466 20467 28
16374 20466 20468 28
16375 20466 20469 28
16376 20466 20470 28
16377 20471 20472 28
16378 20471 20473 28
16379 20471 20474 28
16380 20471 20475 28
16381 20476 20477 28
16382 20476 20478 28
16383 20476 20479 28
16384 20476 20480 28
16385 20481 20482 28
16386 20481 20483 28
16387 20481 20484 28
16388 20481 20485 28
16389 20486 20487 28
16390 20486 20488 28
16391 20486 20489 28
16392 20486 20490 28
16393 20491 20492 28
16394 20491 20493 28
16395 20491 20494 28
16396 20491 20495 28
16397 20496 20497 28
16398 20496 20498 28
16399 20496 20499 28
16400 20496 20500 28
16401 20501 20502 28
16402 20501 20503 28
16403 20501 20504 28
16404 20501 20505 28
16405 20506 20507 28
16406 20506 20508 28
16407 20506 20509 28
16408 20506 20510 28
16409 20511 20512 28
16410 20511 20513 28
16411 20511 20514 28
16412 20511 20515 28
16413 20516 20517 28
16414 20516 20518 28
16415 20516 20519 28
16416 20516 20520 28
16417 20521 20522 28
16418 20521 20523 28
16419 20521 20524 28
16420 20521 20525 28
16421 20526 20527 28
16422 20526 20528 28
16423 20526 20529 28
16424 20526 20530 28
16425 20531 20532 28
16426 20531 20533 28
16427 20531 20534 28
16428 20531 20535 28
16429 20536 20537 28
16430 20536 20538 28
16431 20536 20539 28
16432 20536 20540 28
16433 20541 20542 28
16434 20541 20543 28
16435 20541 20544 28
16436 20541 20545 28
16437 20546 20547 28
16438 20546 20548 28
16439 20546 20549 28
16440 20546 20550 28
16441 20551 20552 28
16442 20551 20553 28
16443 20551 20554 28
16444 20551 20555 28
16445 20556 20557 28
16446 20556 20558 28
16447 20556 20559 28
16448 20556 20560 28
16449 20561 20562 28
16450 20561 20563 28
16451 20561 20564 28
16452 20561 20565 28
16453 20566 20567 28
16454 20566 20568 28
16455 20566 20569 28
16456 20566 20570 28
16457 20571 20572 28
16458 20571 20573 28
16459 20571 20574 28
16460 20571 20575 28
16461 20576 20577 28
16462 20576 20578 28
16463 20576 20579 28
16464 20576 20580 28
16465 20581 20582 28
16466 20581 20583 28
16467 20581 20584 28
16468 20581 20585 28
16469 20586 20587 28
16470 20586 20588 28
16471 20586 20589 28
16472 20586 20590 28
16473 20591 20592 28
16474 20591 20593 28
16475 20591 20594 28
16476 20591 20595 28
16477 20596 20597 28
16478 20596 20598 28
16479 20596 20599 28
16480 20596 20600 28
16481 20601 20602 28
16482 20601 20603 28
16483 20601 20604 28
16484 20601 20605 28
16485 20606 20607 28
16486 20606 20608 28
16487 20606 20609 28
16488 20606 20610 28
16489 20611 20612 28
16490 20611 20613 28
16491 20611 20614 28
16492 20611 20615 28
16493 20616 20617 28
16494 20616 20618 28
16495 20616 20619 28
16496 20616 20620 28
16497 20621 20622 28
16498 20621 20623 28
16499 20621 20624 28
16500 20621 20625 28
16501 20626 20627 28
16502 20626 20628 28
16503 20626 20629 28
16504 20626 20630 28
16505 20631 20632 28
16506 20631 20633 28
16507 20631 20634 28
16508 20631 20635 28
16509 20636 20637 28
16510 20636 20638 28
16511 20636 20639 28
16512 20636 20640 28
16513 20641 20642 28
16514 20641 20643 28
16515 20641 20644 28
16516 20641 20645 28
16517 20646 20647 28
16518 20646 20648 28
16519 20646 20649 28
16520 20646 20650 28
16521 20651 20652 28
16522 20651 20653 28
16523 20651 20654 28
16524 20651 20655 28
16525 20656 20657 28
16526 20656 20658 28
16527 20656 20659 28
16528 20656 20660 28
16529 20661 20662 28
16530 20661 20663 28
16531 20661 20664 28
16532 20661 20665 28
16533 20666 20667 28
16534 20666 20668 28
16535 20666 20669 28
16536 20666 20670 28
16537 20671 20672 28
16538 20671 20673 28
16539 20671 20674 28
16540 20671 20675 28
16541 20676 20677 28
16542 20676 20678 28
16543 20676 20679 28
16544 20676 20680 28
16545 20681 20682 28
16546 20681 20683 28
16547 20681 20684 28
16548 20681 20685 28
16549 20686 20687 28
16550 20686 20688 28
16551 20686 20689 28
16552 20686 20690 28
16553 20691 20692 28
16554 20691 20693 28
16555 20691 20694 28
16556 20691 20695 28
16557 20696 20697 28
16558 20696 20698 28
16559 20696 20699 28
16560 20696 20700 28
16561 20701 20702 28
16562 20701 20703 28
16563 20701 20704 28
16564 20701 20705 28
16565 20706 20707 28
16566 20706 20708 28
16567 20706 20709 28
16568 20706 20710 28
16569 20711 20712 28
16570 20711 20713 28
16571 20711 20714 28
16572 20711 20715 28
16573 20716 20717 28
16574 20716 20718 28
16575 20716 20719 28
16576 20716 20720 28
16577 20721 20722 28
16578 20721 20723 28
16579 20721 20724 28
16580 20721 20725 28
16581 20726 20727 28
16582 20726 20728 28
16583 20726 20729 28
16584 20726 20730 28
16585 20731 20732 28
16586 20731 20733 28
16587 20731 20734 28
16588 20731 20735 28
16589 20736 20737 28
16590 20736 20738 28
16591 20736 20739 28
16592 20736 20740 28
16593 20741 20742 28
16594 20741 20743 28
16595 20741 20744 28
16596 20741 20745 28
16597 20746 20747 28
16598 20746 20748 28
16599 20746 20749 28
16600 20746 20750 28
16601 20751 20752 28
16602 20751 20753 28
16603 20751 20754 28
16604 20751 20755 28
16605 20756 20757 28
16606 20756 20758 28
16607 20756 20759 28
16608 20756 20760 28
16609 20761 20762 28
16610 20761 20763 28
16611 20761 20764 28
16612 20761 20765 28
16613 20766 20767 28
16614 20766 20768 28
16615 20766 20769 28
16616 20766 20770 28
16617 20771 20772 28
16618 20771 20773 28
16619 20771 20774 28
16620 20771 20775 28
16621 20776 20777 28
16622 20776 20778 28
16623 20776 20779 28
16624 20776 20780 28
16625 20781 20782 28
16626 20781 20783 28
16627 20781 20784 28
16628 20781 20785 28
16629 20786 20787 28
16630 20786 20788 28
16631 20786 20789 28
16632 20786 20790 28
16633 20791 20792 28
16634 20791 20793 28
16635 20791 20794 28
16636 20791 20795 28
16637 20796 20797 28
16638 20796 20798 28
16639 20796 20799 28
16640 20796 20800 28
16641 20801 20802 28
16642 20801 20803 28
16643 20801 20804 28
16644 20801 20805 28
16645 20806 20807 28
16646 20806 20808 28
16647 20806 20809 28
16648 20806 20810 28
16649 20811 20812 28
16650 20811 20813 28
16651 20811 20814 28
16652 20811 20815 28
16653 20816 20817 28
16654 20816 20818 28
16655 20816 20819 28
16656 20816 20820 28
16657 20821 20822 28
16658 20821 20823 28
16659 20821 20824 28
16660 20821 20825 28
16661 20826 20827 28
16662 20826 20828 28
16663 20826 20829 28
16664 20826 20830 28
16665 20831 20832 28
16666 20831 20833 28
16667 20831 20834 28
16668 20831 20835 28
16669 20836 20837 28
16670 20836 20838 28
16671 20836 20839 28
16672 20836 20840 28
16673 20841 20842 28
16674 20841 20843 28
16675 20841 20844 28
16676 20841 20845 28
16677 20846 20847 28
16678 20846 20848 28
16679 20846 20849 28
16680 20846 20850 28
16681 20851 20852 28
16682 20851 20853 28
16683 20851 20854 28
16684 20851 20855 28
16685 20856 20857 28
16686 20856 20858 28
16687 20856 20859 28
16688 20856 20860 28
16689 20861 20862 28
16690 20861 20863 28
16691 20861 20864 28
16692 20861 20865 28
16693 20866 20867 28
16694 20866 20868 28
16695 20866 20869 28
16696 20866 20870 28
16697 20871 20872 28
16698 20871 20873 28
16699 20871 20874 28
16700 20871 20875 28
16701 20876 20877 28
16702 20876 20878 28
16703 20876 20879 28
16704 20876 20880 28
16705 20881 20882 28
16706 20881 20883 28
16707 20881 20884 28
16708 20881 20885 28
16709 20886 20887 28
16710 20886 20888 28
16711 20886 20889 28
16712 20886 20890 28
16713 20891 20892 28
16714 20891 20893 28
16715 20891 20894 28
16716 20891 20895 28
16717 20896 20897 28
16718 20896 20898 28
16719 20896 20899 28
16720 20896 20900 28
16721 20901 20902 28
16722 20901 20903 28
16723 20901 20904 28
16724 20901 20905 28
16725 20906 20907 28
16726 20906 20908 28
16727 20906 20909 28
16728 20906 20910 28
16729 20911 20912 28
16730 20911 20913 28
16731 20911 20914 28
16732 20911 20915 28
16733 20916 20917 28
16734 20916 20918 28
16735 20916 20919 28
16736 20916 20920 28
16737 20921 20922 28
16738 20921 20923 28
16739 20921 20924 28
16740 20921 20925 28
16741 20926 20927 28
16742 20926 20928 28
16743 20926 20929 28
16744 20926 20930 28
16745 20931 20932 28
16746 20931 20933 28
16747 20931 20934 28
16748 20931 20935 28
16749 20936 20937 28
16750 20936 20938 28
16751 20936 20939 28
16752 20936 20940 28
16753 20941 20942 28
16754 20941 20943 28
16755 20941 20944 28
16756 20941 20945 28
16757 20946 20947 28
16758 20946 20948 28
16759 20946 20949 28
16760 20946 20950 28
16761 20951 20952 28
16762 20951 20953 28
16763 20951 20954 28
16764 20951 20955 28
16765 20956 20957 28
16766 20956 20958 28
16767 20956 20959 28
16768 20956 20960 28
16769 20961 20962 28
16770 20961 20963 28
16771 20961 20964 28
16772 20961 20965 28
16773 20966 20967 28
16774 20966 20968 28
16775 20966 20969 28
16776 20966 20970 28
16777 20971 20972 28
16778 20971 20973 28
16779 20971 20974 28
16780 20971 20975 28
16781 20976 20977 28
16782 20976 20978 28
16783 20976 20979 28
16784 20976 20980 28
16785 20981 20982 28
16786 20981 20983 28
16787 20981 20984 28
16788 20981 20985 28
16789 20986 20987 28
16790 20986 20988 28
16791 20986 20989 28
16792 20986 20990 28
16793 20991 20992 28
16794 20991 20993 28
16795 20991 20994 28
16796 20991 20995 28
16797 20996 20997 28
16798 20996 20998 28
16799 20996 20999 28
16800 20996 21000 28
16801 21001 21002 28
16802 21001 21003 28
16803 21001 21004 28
16804 21001 21005 28
16805 21006 21007 28
16806 21006 21008 28
16807 21006 21009 28
16808 21006 21010 28
16809 21011 21012 28
16810 21011 21013 28
16811 21011 21014 28
16812 21011 21015 28
16813 21016 21017 28
16814 21016 21018 28
16815 21016 21019 28
16816 21016 21020 28
16817 21021 21022 28
16818 21021 21023 28
16819 21021 21024 28
16820 21021 21025 28
16821 21026 21027 28
16822 21026 21028 28
16823 21026 21029 28
16824 21026 21030 28
16825 21031 21032 28
16826 21031 21033 28
16827 21031 21034 28
16828 21031 21035 28
16829 21036 21037 28
16830 21036 21038 28
16831 21036 21039 28
16832 21036 21040 28
16833 21041 21042 28
16834 21041 21043 28
16835 21041 21044 28
16836 21041 21045 28
16837 21046 21047 28
16838 21046 21048 28
16839 21046 21049 28
16840 21046 21050 28
16841 21051 21052 28
16842 21051 21053 28
16843 21051 21054 28
16844 21051 21055 28
16845 21056 21057 28
16846 21056 21058 28
16847 21056 21059 28
16848 21056 21060 28
16849 21061 21062 28
16850 21061 21063 28
16851 21061 21064 28
16852 21061 21065 28
16853 21066 21067 28
16854 21066 21068 28
16855 21066 21069 28
16856 21066 21070 28
16857 21071 21072 28
16858 21071 21073 28
16859 21071 21074 28
16860 21071 21075 28
16861 21076 21077 28
16862 21076 21078 28
16863 21076 21079 28
16864 21076 21080 28
16865 21081 21082 28
16866 21081 21083 28
16867 21081 21084 28
16868 21081 21085 28
16869 21086 21087 28
16870 21086 21088 28
16871 21086 21089 28
16872 21086 21090 28
16873 21091 21092 28
16874 21091 21093 28
16875 21091 21094 28
16876 21091 21095 28
16877 21096 21097 28
16878 21096 21098 28
16879 21096 21099 28
16880 21096 21100 28
16881 21101 21102 28
16882 21101 21103 28
16883 21101 21104 28
16884 21101 21105 28
16885 21106 21107 28
16886 21106 21108 28
16887 21106 21109 28
16888 21106 21110 28
16889 21111 21112 28
16890 21111 21113 28
16891 21111 21114 28
16892 21111 21115 28
16893 21116 21117 28
16894 21116 21118 28
16895 21116 21119 28
16896 21116 21120 28
16897 21121 21122 28
16898 21121 21123 28
16899 21121 21124 28
16900 21121 21125 28
16901 21126 21127 28
16902 21126 21128 28
16903 21126 21129 28
16904 21126 21130 28
16905 21131 21132 28
16906 21131 21133 28
16907 21131 21134 28
16908 21131 21135 28
16909 21136 21137 28
16910 21136 21138 28
16911 21136 21139 28
16912 21136 21140 28
16913 21141 21142 28
16914 21141 21143 28
16915 21141 21144 28
16916 21141 21145 28
16917 21146 21147 28
16918 21146 21148 28
16919 21146 21149 28
16920 21146 21150 28
16921 21151 21152 28
16922 21151 21153 28
16923 21151 21154 28
16924 21151 21155 28
16925 21156 21157 28
16926 21156 21158 28
16927 21156 21159 28
16928 21156 21160 28
16929 21161 21162 28
16930 21161 21163 28
16931 21161 21164 28
16932 21161 21165 28
16933 21166 21167 28
16934 21166 21168 28
16935 21166 21169 28
16936 21166 21170 28
16937 21171 21172 28
16938 21171 21173 28
16939 21171 21174 28
16940 21171 21175 28
16941 21176 21177 28
16942 21176 21178 28
16943 21176 21179 28
16944 21176 21180 28
16945 21181 21182 28
16946 21181 21183 28
16947 21181 21184 28
16948 21181 21185 28
16949 21186 21187 28
16950 21186 21188 28
16951 21186 21189 28
16952 21186 21190 28
16953 21191 21192 28
16954 21191 21193 28
16955 21191 21194 28
16956 21191 21195 28
16957 21196 21197 28
16958 21196 21198 28
16959 21196 21199 28
16960 21196 21200 28
16961 21201 21202 28
16962 21201 21203 28
16963 21201 21204 28
16964 21201 21205 28
16965 21206 21207 28
16966 21206 21208 28
16967 21206 21209 28
16968 21206 21210 28
16969 21211 21212 28
16970 21211 21213 28
16971 21211 21214 28
16972 21211 21215 28
16973 21216 21217 28
16974 21216 21218 28
16975 21216 21219 28
16976 21216 21220 28
16977 21221 21222 28
16978 21221 21223 28
16979 21221 21224 28
16980 21221 21225 28
16981 21226 21227 28
16982 21226 21228 28
16983 21226 21229 28
16984 21226 21230 28
16985 21231 21232 28
16986 21231 21233 28
16987 21231 21234 28
16988 21231 21235 28
16989 21236 21237 28
16990 21236 21238 28
16991 21236 21239 28
16992 21236 21240 28
16993 21241 21242 28
16994 21241 21243 28
16995 21241 21244 28
16996 21241 21245 28
16997 21246 21247 28
16998 21246 21248 28
16999 21246 21249 28
17000 21246 21250 28
17001 21251 21252 28
17002 21251 21253 28
17003 21251 21254 28
17004 21251 21255 28
17005 21256 21257 28
17006 21256 21258 28
17007 21256 21259 28
17008 21256 21260 28
17009 21261 21262 28
17010 21261 21263 28
17011 21261 21264 28
17012 21261 21265 28
17013 21266 21267 28
17014 21266 21268 28
17015 21266 21269 28
17016 21266 21270 28
17017 21271 21272 28
17018 21271 21273 28
17019 21271 21274 28
17020 21271 21275 28
17021 21276 21277 28
17022 21276 21278 28
17023 21276 21279 28
17024 21276 21280 28
17025 21281 21282 28
17026 21281 21283 28
17027 21281 21284 28
17028 21281 21285 28
17029 21286 21287 28
17030 21286 21288 28
17031 21286 21289 28
17032 21286 21290 28
17033 21291 21292 28
17034 21291 21293 28
17035 21291 21294 28
17036 21291 21295 28
17037 21296 21297 28
17038 21296 21298 28
17039 21296 21299 28
17040 21296 21300 28
17041 21301 21302 28
17042 21301 21303 28
17043 21301 21304 28
17044 21301 21305 28
17045 21306 21307 28
17046 21306 21308 28
17047 21306 21309 28
17048 21306 21310 28
17049 21311 21312 28
17050 21311 21313 28
17051 21311 21314 28
17052 21311 21315 28
17053 21316 21317 28
17054 21316 21318 28
17055 21316 21319 28
17056 21316 21320 28
17057 21321 21322 28
17058 21321 21323 28
17059 21321 21324 28
17060 21321 21325 28
17061 21326 21327 28
17062 21326 21328 28
17063 21326 21329 28
17064 21326 21330 28
17065 21331 21332 28
17066 21331 21333 28
17067 21331 21334 28
17068 21331 21335 28
17069 21336 21337 28
17070 21336 21338 28
17071 21336 21339 28
17072 21336 21340 28
17073 21341 21342 28
17074 21341 21343 28
17075 21341 21344 28
17076 21341 21345 28
17077 21346 21347 28
17078 21346 21348 28
17079 21346 21349 28
17080 21346 21350 28
17081 21351 21352 28
17082 21351 21353 28
17083 21351 21354 28
17084 21351 21355 28
17085 21356 21357 28
17086 21356 21358 28
17087 21356 21359 28
17088 21356 21360 28
17089 21361 21362 28
17090 21361 21363 28
17091 21361 21364 28
17092 21361 21365 28
17093 21366 21367 28
17094 21366 21368 28
17095 21366 21369 28
17096 21366 21370 28
17097 21371 21372 28
17098 21371 21373 28
17099 21371 21374 28
17100 21371 21375 28
17101 21376 21377 28
17102 21376 21378 28
17103 21376 21379 28
17104 21376 21380 28
17105 21381 21382 28
17106 21381 21383 28
17107 21381 21384 28
17108 21381 21385 28
17109 21386 21387 28
17110 21386 21388 28
17111 21386 21389 28
17112 21386 21390 28
17113 21391 21392 28
17114 21391 21393 28
17115 21391 21394 28
17116 21391 21395 28
17117 21396 21397 28
17118 21396 21398 28
17119 21396 21399 28
17120 21396 21400 28
17121 21401 21402 28
17122 21401 21403 28
17123 21401 21404 28
17124 21401 21405 28
17125 21406 21407 28
17126 21406 21408 28
17127 21406 21409 28
17128 21406 21410 28
17129 21411 21412 28
17130 21411 21413 28
17131 21411 21414 28
17132 21411 21415 28
17133 21416 21417 28
17134 21416 21418 28
17135 21416 21419 28
17136 21416 21420 28
17137 21421 21422 28
17138 21421 21423 28
17139 21421 21424 28
17140 21421 21425 28
17141 21426 21427 28
17142 21426 21428 28
17143 21426 21429 28
17144 21426 21430 28
17145 21431 21432 28
17146 21431 21433 28
17147 21431 21434 28
17148 21431 21435 28
17149 21436 21437 28
17150 21436 21438 28
17151 21436 21439 28
17152 21436 21440 28
17153 21441 21442 28
17154 21441 21443 28
17155 21441 21444 28
17156 21441 21445 28
17157 21446 21447 28
17158 21446 21448 28
17159 21446 21449 28
17160 21446 21450 28
17161 21451 21452 28
17162 21451 21453 28
17163 21451 21454 28
17164 21451 21455 28
17165 21456 21457 28
17166 21456 21458 28
17167 21456 21459 28
17168 21456 21460 28
17169 21461 21462 28
17170 21461 21463 28
17171 21461 21464 28
17172 21461 21465 28
17173 21466 21467 28
17174 21466 21468 28
17175 21466 21469 28
17176 21466 21470 28
17177 21471 21472 28
17178 21471 21473 28
17179 21471 21474 28
17180 21471 21475 28
17181 21476 21477 28
17182 21476 21478 28
17183 21476 21479 28
17184 21476 21480 28
17185 21481 21482 28
17186 21481 21483 28
17187 21481 21484 28
17188 21481 21485 28
17189 21486 21487 28
17190 21486 21488 28
17191 21486 21489 28
17192 21486 21490 28
17193 21491 21492 28
17194 21491 21493 28
17195 21491 21494 28
17196 21491 21495 28
17197 21496 21497 28
17198 21496 21498 28
17199 21496 21499 28
17200 21496 21500 28
17201 21501 21502 28
17202 21501 21503 28
17203 21501 21504 28
17204 21501 21505 28
17205 21506 21507 28
17206 21506 21508 28
17207 21506 21509 28
17208 21506 21510 28
17209 21511 21512 28
17210 21511 21513 28
17211 21511 21514 28
17212 21511 21515 28
17213 21516 21517 28
17214 21516 21518 28
17215 21516 21519 28
17216 21516 21520 28
17217 21521 21522 28
17218 21521 21523 28
17219 21521 21524 28
17220 21521 21525 28
17221 21526 21527 28
17222 21526 21528 28
17223 21526 21529 28
17224 21526 21530 28
17225 21531 21532 28
17226 21531 21533 28
17227 21531 21534 28
17228 21531 21535 28
17229 21536 21537 28
17230 21536 21538 28
17231 21536 21539 28
17232 21536 21540 28
17233 21541 21542 28
17234 21541 21543 28
17235 21541 21544 28
17236 21541 21545 28
17237 21546 21547 28
17238 21546 21548 28
17239 21546 21549 28
17240 21546 21550 28
17241 21551 21552 28
17242 21551 21553 28
17243 21551 21554 28
17244 21551 21555 28
17245 21556 21557 28
17246 21556 21558 28
17247 21556 21559 28
17248 21556 21560 28
17249 21561 21562 28
17250 21561 21563 28
17251 21561 21564 28
17252 21561 21565 28
17253 21566 21567 28
17254 21566 21568 28
17255 21566 21569 28
17256 21566 21570 28
17257 21571 21572 28
17258 21571 21573 28
17259 21571 21574 28
17260 21571 21575 28
17261 21576 21577 28
17262 21576 21578 28
17263 21576 21579 28
17264 21576 21580 28
17265 21581 21582 28
17266 21581 21583 28
17267 21581 21584 28
17268 21581 21585 28
17269 21586 21587 28
17270 21586 21588 28
17271 21586 21589 28
17272 21586 21590 28
17273 21591 21592 28
17274 21591 21593 28
17275 21591 21594 28
17276 21591 21595 28
17277 21596 21597 28
17278 21596 21598 28
17279 21596 21599 28
17280 21596 21600 28
17281 21601 21602 28
17282 21601 21603 28
17283 21601 21604 28
17284 21601 21605 28
17285 21606 21607 28
17286 21606 21608 28
17287 21606 21609 28
17288 21606 21610 28
17289 21611 21612 28
17290 21611 21613 28
17291 21611 21614 28
17292 21611 21615 28
17293 21616 21617 28
17294 21616 21618 28
17295 21616 21619 28
17296 21616 21620 28
17297 21621 21622 28
17298 21621 21623 28
17299 21621 21624 28
17300 21621 21625 28
17301 21626 21627 28
17302 21626 21628 28
17303 21626 21629 28
17304 21626 21630 28
17305 21631 21632 28
17306 21631 21633 28
17307 21631 21634 28
17308 21631 21635 28
17309 21636 21637 28
17310 21636 21638 28
17311 21636 21639 28
17312 21636 21640 28
17313 21641 21642 28
17314 21641 21643 28
17315 21641 21644 28
17316 21641 21645 28
17317 21646 21647 28
17318 21646 21648 28
17319 21646 21649 28
17320 21646 21650 28
17321 21651 21652 28
17322 21651 21653 28
17323 21651 21654 28
17324 21651 21655 28
17325 21656 21657 28
17326 21656 21658 28
17327 21656 21659 28
17328 21656 21660 28
17329 21661 21662 28
17330 21661 21663 28
17331 21661 21664 28
17332 21661 21665 28
17333 21666 21667 28
17334 21666 21668 28
17335 21666 21669 28
17336 21666 21670 28
17337 21671 21672 28
17338 21671 21673 28
17339 21671 21674 28
17340 21671 21675 28
17341 21676 21677 28
17342 21676 21678 28
17343 21676 21679 28
17344 21676 21680 28
17345 21681 21682 28
17346 21681 21683 28
17347 21681 21684 28
17348 21681 21685 28
17349 21686 21687 28
17350 21686 21688 28
17351 21686 21689 28
17352 21686 21690 28
17353 21691 21692 28
17354 21691 21693 28
17355 21691 21694 28
17356 21691 21695 28
17357 21696 21697 28
17358 21696 21698 28
17359 21696 21699 28
17360 21696 21700 28
17361 21701 21702 28
17362 21701 21703 28
17363 21701 21704 28
17364 21701 21705 28
17365 21706 21707 28
17366 21706 21708 28
17367 21706 21709 28
17368 21706 21710 28
17369 21711 21712 28
17370 21711 21713 28
17371 21711 21714 28
17372 21711 21715 28
17373 21716 21717 28
17374 21716 21718 28
17375 21716 21719 28
17376 21716 21720 28
17377 21721 21722 28
17378 21721 21723 28
17379 21721 21724 28
17380 21721 21725 28
17381 21726 21727 28
17382 21726 21728 28
17383 21726 21729 28
17384 21726 21730 28
17385 21731 21732 28
17386 21731 21733 28
17387 21731 21734 28
17388 21731 21735 28
17389 21736 21737 28
17390 21736 21738 28
17391 21736 21739 28
17392 21736 21740 28
17393 21741 21742 28
17394 21741 21743 28
17395 21741 21744 28
17396 21741 21745 28
17397 21746 21747 28
17398 21746 21748 28
17399 21746 21749 28
17400 21746 21750 28
17401 21751 21752 28
17402 21751 21753 28
17403 21751 21754 28
17404 21751 21755 28
17405 21756 21757 28
17406 21756 21758 28
17407 21756 21759 28
17408 21756 21760 28
17409 21761 21762 28
17410 21761 21763 28
17411 21761 21764 28
17412 21761 21765 28
17413 21766 21767 28
17414 21766 21768 28
17415 21766 21769 28
17416 21766 21770 28
17417 21771 21772 28
17418 21771 21773 28
17419 21771 21774 28
17420 21771 21775 28
17421 21776 21777 28
17422 21776 21778 28
17423 21776 21779 28
17424 21776 21780 28
17425 21781 21782 28
17426 21781 21783 28
17427 21781 21784 28
17428 21781 21785 28
17429 21786 21787 28
17430 21786 21788 28
17431 21786 21789 28
17432 21786 21790 28
17433 21791 21792 28
17434 21791 21793 28
17435 21791 21794 28
17436 21791 21795 28
17437 21796 21797 28
17438 21796 21798 28
17439 21796 21799 28
17440 21796 21800 28
17441 21801 21802 28
17442 21801 21803 28
17443 21801 21804 28
17444 21801 21805 28
17445 21806 21807 28
17446 21806 21808 28
17447 21806 21809 28
17448 21806 21810 28
17449 21811 21812 28
17450 21811 21813 28
17451 21811 21814 28
17452 21811 21815 28
17453 21816 21817 28
17454 21816 21818 28
17455 21816 21819 28
17456 21816 21820 28
17457 21821 21822 28
17458 21821 21823 28
17459 21821 21824 28
17460 21821 21825 28
17461 21826 21827 28
17462 21826 21828 28
17463 21826 21829 28
17464 21826 21830 28
17465 21831 21832 28
17466 21831 21833 28
17467 21831 21834 28
17468 21831 21835 28
17469 21836 21837 28
17470 21836 21838 28
17471 21836 21839 28
17472 21836 21840 28
17473 21841 21842 28
17474 21841 21843 28
17475 21841 21844 28
17476 21841 21845 28
17477 21846 21847 28
17478 21846 21848 28
17479 21846 21849 28
17480 21846 21850 28
17481 21851 21852 28
17482 21851 21853 28
17483 21851 21854 28
17484 21851 21855 28
17485 21856 21857 28
17486 21856 21858 28
17487 21856 21859 28
17488 21856 21860 28
17489 21861 21862 28
17490 21861 21863 28
17491 21861 21864 28
17492 21861 21865 28
17493 21866 21867 28
17494 21866 21868 28
17495 21866 21869 28
17496 21866 21870 28
17497 21871 21872 28
17498 21871 21873 28
17499 21871 21874 28
17500 21871 21875 28
17501 21876 21877 28
17502 21876 21878 28
17503 21876 21879 28
17504 21876 21880 28
17505 21881 21882 28
17506 21881 21883 28
17507 21881 21884 28
17508 21881 21885 28
17509 21886 21887 28
17510 21886 21888 28
17511 21886 21889 28
17512 21886 21890 28
17513 21891 21892 28
17514 21891 21893 28
17515 21891 21894 28
17516 21891 21895 28
17517 21896 21897 28
17518 21896 21898 28
17519 21896 21899 28
17520 21896 21900 28
17521 21901 21902 28
17522 21901 21903 28
17523 21901 21904 28
17524 21901 21905 28
17525 21906 21907 28
17526 21906 21908 28
17527 21906 21909 28
17528 21906 21910 28
17529 21911 21912 28
17530 21911 21913 28
17531 21911 21914 28
17532 21911 21915 28
17533 21916 21917 28
17534 21916 21918 28
17535 21916 21919 28
17536 21916 21920 28
17537 21921 21922 28
17538 21921 21923 28
17539 21921 21924 28
17540 21921 21925 28
17541 21926 21927 28
17542 21926 21928 28
17543 21926 21929 28
17544 21926 21930 28
17545 21931 21932 28
17546 21931 21933 28
17547 21931 21934 28
17548 21931 21935 28
17549 21936 21937 28
17550 21936 21938 28
17551 21936 21939 28
17552 21936 21940 28
17553 21941 21942 28
17554 21941 21943 28
17555 21941 21944 28
17556 21941 21945 28
17557 21946 21947 28
17558 21946 21948 28
17559 21946 21949 28
17560 21946 21950 28
17561 21951 21952 28
17562 21951 21953 28
17563 21951 21954 28
17564 21951 21955 28
17565 21956 21957 28
17566 21956 21958 28
17567 21956 21959 28
17568 21956 21960 28
17569 21961 21962 28
17570 21961 21963 28
17571 21961 21964 28
17572 21961 21965 28
17573 21966 21967 28
17574 21966 21968 28
17575 21966 21969 28
17576 21966 21970 28
17577 21971 21972 28
17578 21971 21973 28
17579 21971 21974 28
17580 21971 21975 28
17581 21976 21977 28
17582 21976 21978 28
17583 21976 21979 28
17584 21976 21980 28
17585 21981 21982 28
17586 21981 21983 28
17587 21981 21984 28
17588 21981 21985 28
17589 21986 21987 28
17590 21986 21988 28
17591 21986 21989 28
17592 21986 21990 28
17593 21991 21992 28
17594 21991 21993 28
17595 21991 21994 28
17596 21991 21995 28
17597 21996 21997 28
17598 21996 21998 28
17599 21996 21999 28
17600 21996 22000 28
17601 22001 22002 28
17602 22001 22003 28
17603 22001 22004 28
17604 22001 22005 28
17605 22006 22007 28
17606 22006 22008 28
17607 22006 22009 28
17608 22006 22010 28
17609 22011 22012 28
17610 22011 22013 28
17611 22011 22014 28
17612 22011 22015 28
17613 22016 22017 28
17614 22016 22018 28
17615 22016 22019 28
17616 22016 22020 28
17617 22021 22022 28
17618 22021 22023 28
17619 22021 22024 28
17620 22021 22025 28
17621 22026 22027 28
17622 22026 22028 28
17623 22026 22029 28
17624 22026 22030 28
17625 22031 22032 28
17626 22031 22033 28
17627 22031 22034 28
17628 22031 22035 28
17629 22036 22037 28
17630 22036 22038 28
17631 22036 22039 28
17632 22036 22040 28
17633 22041 22042 28
17634 22041 22043 28
17635 22041 22044 28
17636 22041 22045 28
17637 22046 22047 28
17638 22046 22048 28
17639 22046 22049 28
17640 22046 22050 28
17641 22051 22052 28
17642 22051 22053 28
17643 22051 22054 28
17644 22051 22055 28
17645 22056 22057 28
17646 22056 22058 28
17647 22056 22059 28
17648 22056 22060 28
17649 22061 22062 28
17650 22061 22063 28
17651 22061 22064 28
17652 22061 22065 28
17653 22066 22067 28
17654 22066 22068 28
17655 22066 22069 28
17656 22066 22070 28
17657 22071 22072 28
17658 22071 22073 28
17659 22071 22074 28
17660 22071 22075 28
17661 22076 22077 28
17662 22076 22078 28
17663 22076 22079 28
17664 22076 22080 28
17665 22081 22082 28
17666 22081 22083 28
17667 22081 22084 28
17668 22081 22085 28
17669 22086 22087 28
17670 22086 22088 28
17671 22086 22089 28
17672 22086 22090 28
17673 22091 22092 28
17674 22091 22093 28
17675 22091 22094 28
17676 22091 22095 28
17677 22096 22097 28
17678 22096 22098 28
17679 22096 22099 28
17680 22096 22100 28
17681 22101 22102 28
17682 22101 22103 28
17683 22101 22104 28
17684 22101 22105 28
17685 22106 22107 28
17686 22106 22108 28
17687 22106 22109 28
17688 22106 22110 28
17689 22111 22112 28
17690 22111 22113 28
17691 22111 22114 28
17692 22111 22115 28
17693 22116 22117 28
17694 22116 22118 28
17695 22116 22119 28
17696 22116 22120 28
17697 22121 22122 28
17698 22121 22123 28
17699 22121 22124 28
17700 22121 22125 28
17701 22126 22127 28
17702 22126 22128 28
17703 22126 22129 28
17704 22126 22130 28
17705 22131 22132 28
17706 22131 22133 28
17707 22131 22134 28
17708 22131 22135 28
17709 22136 22137 28
17710 22136 22138 28
17711 22136 22139 28
17712 22136 22140 28
17713 22141 22142 28
17714 22141 22143 28
17715 22141 22144 28
17716 22141 22145 28
17717 22146 22147 28
17718 22146 22148 28
17719 22146 22149 28
17720 22146 22150 28
17721 22151 22152 28
17722 22151 22153 28
17723 22151 22154 28
17724 22151 22155 28
17725 22156 22157 28
17726 22156 22158 28
17727 22156 22159 28
17728 22156 22160 28
17729 22161 22162 28
17730 22161 22163 28
17731 22161 22164 28
17732 22161 22165 28
17733 22166 22167 28
17734 22166 22168 28
17735 22166 22169 28
17736 22166 22170 28
17737 22171 22172 28
17738 22171 22173 28
17739 22171 22174 28
17740 22171 22175 28
17741 22176 22177 28
17742 22176 22178 28
17743 22176 22179 28
17744 22176 22180 28
17745 22181 22182 28
17746 22181 22183 28
17747 22181 22184 28
17748 22181 22185 28
17749 22186 22187 28
17750 22186 22188 28
17751 22186 22189 28
17752 22186 22190 28
17753 22191 22192 28
17754 22191 22193 28
17755 22191 22194 28
17756 22191 22195 28
17757 22196 22197 28
17758 22196 22198 28
17759 22196 22199 28
17760 22196 22200 28
17761 22201 22202 28
17762 22201 22203 28
17763 22201 22204 28
17764 22201 22205 28
17765 22206 22207 28
17766 22206 22208 28
17767 22206 22209 28
17768 22206 22210 28
17769 22211 22212 28
17770 22211 22213 28
17771 22211 22214 28
17772 22211 22215 28
17773 22216 22217 28
17774 22216 22218 28
17775 22216 22219 28
17776 22216 22220 28
17777 22221 22222 28
17778 22221 22223 28
17779 22221 22224 28
17780 22221 22225 28
17781 22226 22227 28
17782 22226 22228 28
17783 22226 22229 28
17784 22226 22230 28
17785 22231 22232 28
17786 22231 22233 28
17787 22231 22234 28
17788 22231 22235 28
17789 22236 22237 28
17790 22236 22238 28
17791 22236 22239 28
17792 22236 22240 28
17793 22241 22242 28
17794 22241 22243 28
17795 22241 22244 28
17796 22241 22245 28
17797 22246 22247 28
17798 22246 22248 28
17799 22246 22249 28
17800 22246 22250 28
17801 22251 22252 28
17802 22251 22253 28
17803 22251 22254 28
17804 22251 22255 28
17805 22256 22257 28
17806 22256 22258 28
17807 22256 22259 28
17808 22256 22260 28
17809 22261 22262 28
17810 22261 22263 28
17811 22261 22264 28
17812 22261 22265 28
17813 22266 22267 28
17814 22266 22268 28
17815 22266 22269 28
17816 22266 22270 28
17817 22271 22272 28
17818 22271 22273 28
17819 22271 22274 28
17820 22271 22275 28
17821 22276 22277 28
17822 22276 22278 28
17823 22276 22279 28
17824 22276 22280 28
17825 22281 22282 28
17826 22281 22283 28
17827 22281 22284 28
17828 22281 22285 28
17829 22286 22287 28
17830 22286 22288 28
17831 22286 22289 28
17832 22286 22290 28
17833 22291 22292 28
17834 22291 22293 28
17835 22291 22294 28
17836 22291 22295 28
17837 22296 22297 28
17838 22296 22298 28
17839 22296 22299 28
17840 22296 22300 28
17841 22301 22302 28
17842 22301 22303 28
17843 22301 22304 28
17844 22301 22305 28
17845 22306 22307 28
17846 22306 22308 28
17847 22306 22309 28
17848 22306 22310 28
17849 22311 22312 28
17850 22311 22313 28
17851 22311 22314 28
17852 22311 22315 28
17853 22316 22317 28
17854 22316 22318 28
17855 22316 22319 28
17856 22316 22320 28
17857 22321 22322 28
17858 22321 22323 28
17859 22321 22324 28
17860 22321 22325 28
17861 22326 22327 28
17862 22326 22328 28
17863 22326 22329 28
17864 22326 22330 28
17865 22331 22332 28
17866 22331 22333 28
17867 22331 22334 28
17868 22331 22335 28
17869 22336 22337 28
17870 22336 22338 28
17871 22336 22339 28
17872 22336 22340 28
17873 22341 22342 28
17874 22341 22343 28
17875 22341 22344 28
17876 22341 22345 28
17877 22346 22347 28
17878 22346 22348 28
17879 22346 22349 28
17880 22346 22350 28
17881 22351 22352 28
17882 22351 22353 28
17883 22351 22354 28
17884 22351 22355 28
17885 22356 22357 28
17886 22356 22358 28
17887 22356 22359 28
17888 22356 22360 28
17889 22361 22362 28
17890 22361 22363 28
17891 22361 22364 28
17892 22361 22365 28
17893 22366 22367 28
17894 22366 22368 28
17895 22366 22369 28
17896 22366 22370 28
17897 22371 22372 28
17898 22371 22373 28
17899 22371 22374 28
17900 22371 22375 28
17901 22376 22377 28
17902 22376 22378 28
17903 22376 22379 28
17904 22376 22380 28
17905 22381 22382 28
17906 22381 22383 28
17907 22381 22384 28
17908 22381 22385 28
17909 22386 22387 28
17910 22386 22388 28
17911 22386 22389 28
17912 22386 22390 28
17913 22391 22392 28
17914 22391 22393 28
17915 22391 22394 28
17916 22391 22395 28
17917 22396 22397 28
17918 22396 22398 28
17919 22396 22399 28
17920 22396 22400 28
17921 22401 22402 28
17922 22401 22403 28
17923 22401 22404 28
17924 22401 22405 28
17925 22406 22407 28
17926 22406 22408 28
17927 22406 22409 28
17928 22406 22410 28
17929 22411 22412 28
17930 22411 22413 28
17931 22411 22414 28
17932 22411 22415 28
17933 22416 22417 28
17934 22416 22418 28
17935 22416 22419 28
17936 22416 22420 28
17937 22421 22422 28
17938 22421 22423 28
17939 22421 22424 28
17940 22421 22425 28
17941 22426 22427 28
17942 22426 22428 28
17943 22426 22429 28
17944 22426 22430 28
17945 22431 22432 28
17946 22431 22433 28
17947 22431 22434 28
17948 22431 22435 28
17949 22436 22437 28
17950 22436 22438 28
17951 22436 22439 28
17952 22436 22440 28
17953 22441 22442 28
17954 22441 22443 28
17955 22441 22444 28
17956 22441 22445 28
17957 22446 22447 28
17958 22446 22448 28
17959 22446 22449 28
17960 22446 22450 28
17961 22451 22452 28
17962 22451 22453 28
17963 22451 22454 28
17964 22451 22455 28
17965 22456 22457 28
17966 22456 22458 28
17967 22456 22459 28
17968 22456 22460 28
17969 22461 22462 28
17970 22461 22463 28
17971 22461 22464 28
17972 22461 22465 28
17973 22466 22467 28
17974 22466 22468 28
17975 22466 22469 28
17976 22466 22470 28
17977 22471 22472 28
17978 22471 22473 28
17979 22471 22474 28
17980 22471 22475 28
17981 22476 22477 28
17982 22476 22478 28
17983 22476 22479 28
17984 22476 22480 28
17985 22481 22482 28
17986 22481 22483 28
17987 22481 22484 28
17988 22481 22485 28
17989 22486 22487 28
17990 22486 22488 28
17991 22486 22489 28
17992 22486 22490 28
17993 22491 22492 28
17994 22491 22493 28
17995 22491 22494 28
17996 22491 22495 28
17997 22496 22497 28
17998 22496 22498 28
17999 22496 22499 28
18000 22496 22500 28
18001 22501 22502 28
18002 22501 22503 28
18003 22501 22504 28
18004 22501 22505 28
18005 22506 22507 28
18006 22506 22508 28
18007 22506 22509 28
18008 22506 22510 28
18009 22511 22512 28
18010 22511 22513 28
18011 22511 22514 28
18012 22511 22515 28
18013 22516 22517 28
18014 22516 22518 28
18015 22516 22519 28
18016 22516 22520 28
18017 22521 22522 28
18018 22521 22523 28
18019 22521 22524 28
18020 22521 22525 28
18021 22526 22527 28
18022 22526 22528 28
18023 22526 22529 28
18024 22526 22530 28
18025 22531 22532 28
18026 22531 22533 28
18027 22531 22534 28
18028 22531 22535 28
18029 22536 22537 28
18030 22536 22538 28
18031 22536 22539 28
18032 22536 22540 28
18033 22541 22542 28
18034 22541 22543 28
18035 22541 22544 28
18036 22541 22545 28
18037 22546 22547 28
18038 22546 22548 28
18039 22546 22549 28
18040 22546 22550 28
18041 22551 22552 28
18042 22551 22553 28
18043 22551 22554 28
18044 22551 22555 28
18045 22556 22557 28
18046 22556 22558 28
18047 22556 22559 28
18048 22556 22560 28
18049 22561 22562 28
18050 22561 22563 28
18051 22561 22564 28
18052 22561 22565 28
18053 22566 22567 28
18054 22566 22568 28
18055 22566 22569 28
18056 22566 22570 28
18057 22571 22572 28
18058 22571 22573 28
18059 22571 22574 28
18060 22571 22575 28
18061 22576 22577 28
18062 22576 22578 28
18063 22576 22579 28
18064 22576 22580 28
18065 22581 22582 28
18066 22581 22583 28
18067 22581 22584 28
18068 22581 22585 28
18069 22586 22587 28
18070 22586 22588 28
18071 22586 22589 28
18072 22586 22590 28
18073 22591 22592 28
18074 22591 22593 28
18075 22591 22594 28
18076 22591 22595 28
18077 22596 22597 28
18078 22596 22598 28
18079 22596 22599 28
18080 22596 22600 28
18081 22601 22602 28
18082 22601 22603 28
18083 22601 22604 28
18084 22601 22605 28
18085 22606 22607 28
18086 22606 22608 28
18087 22606 22609 28
18088 22606 22610 28
18089 22611 22612 28
18090 22611 22613 28
18091 22611 22614 28
18092 22611 22615 28
18093 22616 22617 28
18094 22616 22618 28
18095 22616 22619 28
18096 22616 22620 28
18097 22621 22622 28
18098 22621 22623 28
18099 22621 22624 28
18100 22621 22625 28
18101 22626 22627 28
18102 22626 22628 28
18103 22626 22629 28
18104 22626 22630 28
18105 22631 22632 28
18106 22631 22633 28
18107 22631 22634 28
18108 22631 22635 28
18109 22636 22637 28
18110 22636 22638 28
18111 22636 22639 28
18112 22636 22640 28
18113 22641 22642 28
18114 22641 22643 28
18115 22641 22644 28
18116 22641 22645 28
18117 22646 22647 28
18118 22646 22648 28
18119 22646 22649 28
18120 22646 22650 28
18121 22651 22652 28
18122 22651 22653 28
18123 22651 22654 28
18124 22651 22655 28
18125 22656 22657 28
18126 22656 22658 28
18127 22656 22659 28
18128 22656 22660 28
18129 22661 22662 28
18130 22661 22663 28
18131 22661 22664 28
18132 22661 22665 28
18133 22666 22667 28
18134 22666 22668 28
18135 22666 22669 28
18136 22666 22670 28
18137 22671 22672 28
18138 22671 22673 28
18139 22671 22674 28
18140 22671 22675 28
18141 22676 22677 28
18142 22676 22678 28
18143 22676 22679 28
18144 22676 22680 28
18145 22681 22682 28
18146 22681 22683 28
18147 22681 22684 28
18148 22681 22685 28
18149 22686 22687 28
18150 22686 22688 28
18151 22686 22689 28
18152 22686 22690 28
18153 22691 22692 28
18154 22691 22693 28
18155 22691 22694 28
18156 22691 22695 28
18157 22696 22697 28
18158 22696 22698 28
18159 22696 22699 28
18160 22696 22700 28
18161 22701 22702 28
18162 22701 22703 28
18163 22701 22704 28
18164 22701 22705 28
18165 22706 22707 28
18166 22706 22708 28
18167 22706 22709 28
18168 22706 22710 28
18169 22711 22712 28
18170 22711 22713 28
18171 22711 22714 28
18172 22711 22715 28
18173 22716 22717 28
18174 22716 22718 28
18175 22716 22719 28
18176 22716 22720 28
18177 22721 22722 28
18178 22721 22723 28
18179 22721 22724 28
18180 22721 22725 28
18181 22726 22727 28
18182 22726 22728 28
18183 22726 22729 28
18184 22726 22730 28
18185 22731 22732 28
18186 22731 22733 28
18187 22731 22734 28
18188 22731 22735 28
18189 22736 22737 28
18190 22736 22738 28
18191 22736 22739 28
18192 22736 22740 28
18193 22741 22742 28
18194 22741 22743 28
18195 22741 22744 28
18196 22741 22745 28
18197 22746 22747 28
18198 22746 22748 28
18199 22746 22749 28
18200 22746 22750 28
18201 22751 22752 28
18202 22751 22753 28
18203 22751 22754 28
18204 22751 22755 28
18205 22756 22757 28
18206 22756 22758 28
18207 22756 22759 28
18208 22756 22760 28
18209 22761 22762 28
18210 22761 22763 28
18211 22761 22764 28
18212 22761 22765 28
18213 22766 22767 28
18214 22766 22768 28
18215 22766 22769 28
18216 22766 22770 28
18217 22771 22772 28
18218 22771 22773 28
18219 22771 22774 28
18220 22771 22775 28
18221 22776 22777 28
18222 22776 22778 28
18223 22776 22779 28
18224 22776 22780 28
18225 22781 22782 28
18226 22781 22783 28
18227 22781 22784 28
18228 22781 22785 28
18229 22786 22787 28
18230 22786 22788 28
18231 22786 22789 28
18232 22786 22790 28
18233 22791 22792 28
18234 22791 22793 28
18235 22791 22794 28
18236 22791 22795 28
18237 22796 22797 28
18238 22796 22798 28
18239 22796 22799 28
18240 22796 22800 28
18241 22801 22802 28
18242 22801 22803 28
18243 22801 22804 28
18244 22801 22805 28
18245 22806 22807 28
18246 22806 22808 28
18247 22806 22809 28
18248 22806 22810 28
18249 22811 22812 28
18250 22811 22813 28
18251 22811 22814 28
18252 22811 22815 28
18253 22816 22817 28
18254 22816 22818 28
18255 22816 22819 28
18256 22816 22820 28
18257 22821 22822 28
18258 22821 22823 28
18259 22821 22824 28
18260 22821 22825 28
18261 22826 22827 28
18262 22826 22828 28
18263 22826 22829 28
18264 22826 22830 28
18265 22831 22832 28
18266 22831 22833 28
18267 22831 22834 28
18268 22831 22835 28
18269 22836 22837 28
18270 22836 22838 28
18271 22836 22839 28
18272 22836 22840 28
18273 22841 22842 28
18274 22841 22843 28
18275 22841 22844 28
18276 22841 22845 28
18277 22846 22847 28
18278 22846 22848 28
18279 22846 22849 28
18280 22846 22850 28
18281 22851 22852 28
18282 22851 22853 28
18283 22851 22854 28
18284 22851 22855 28
18285 22856 22857 28
18286 22856 22858 28
18287 22856 22859 28
18288 22856 22860 28
18289 22861 22862 28
18290 22861 22863 28
18291 22861 22864 28
18292 22861 22865 28
18293 22866 22867 28
18294 22866 22868 28
18295 22866 22869 28
18296 22866 22870 28
18297 22871 22872 28
18298 22871 22873 28
18299 22871 22874 28
18300 22871 22875 28
18301 22876 22877 28
18302 22876 22878 28
18303 22876 22879 28
18304 22876 22880 28
18305 22881 22882 28
18306 22881 22883 28
18307 22881 22884 28
18308 22881 22885 28
18309 22886 22887 28
18310 22886 22888 28
18311 22886 22889 28
18312 22886 22890 28
18313 22891 22892 28
18314 22891 22893 28
18315 22891 22894 28
18316 22891 22895 28
18317 22896 22897 28
18318 22896 22898 28
18319 22896 22899 28
18320 22896 22900 28
18321 22901 22902 28
18322 22901 22903 28
18323 22901 22904 28
18324 22901 22905 28
18325 22906 22907 28
18326 22906 22908 28
18327 22906 22909 28
18328 22906 22910 28
18329 22911 22912 28
18330 22911 22913 28
18331 22911 22914 28
18332 22911 22915 28
18333 22916 22917 28
18334 22916 22918 28
18335 22916 22919 28
18336 22916 22920 28
18337 22921 22922 28
18338 22921 22923 28
18339 22921 22924 28
18340 22921 22925 28
18341 22926 22927 28
18342 22926 22928 28
18343 22926 22929 28
18344 22926 22930 28
18345 22931 22932 28
18346 22931 22933 28
18347 22931 22934 28
18348 22931 22935 28
18349 22936 22937 28
18350 22936 22938 28
18351 22936 22939 28
18352 22936 22940 28
18353 22941 22942 28
18354 22941 22943 28
18355 22941 22944 28
18356 22941 22945 28
18357 22946 22947 28
18358 22946 22948 28
18359 22946 22949 28
18360 22946 22950 28
18361 22951 22952 28
18362 22951 22953 28
18363 22951 22954 28
18364 22951 22955 28
18365 22956 22957 28
18366 22956 22958 28
18367 22956 22959 28
18368 22956 22960 28
18369 22961 22962 28
18370 22961 22963 28
18371 22961 22964 28
18372 22961 22965 28
18373 22966 22967 28
18374 22966 22968 28
18375 22966 22969 28
18376 22966 22970 28
18377 22971 22972 28
18378 22971 22973 28
18379 22971 22974 28
18380 22971 22975 28
18381 22976 22977 28
18382 22976 22978 28
18383 22976 22979 28
18384 22976 22980 28
18385 22981 22982 28
18386 22981 22983 28
18387 22981 22984 28
18388 22981 22985 28
18389 22986 22987 28
18390 22986 22988 28
18391 22986 22989 28
18392 22986 22990 28
18393 22991 22992 28
18394 22991 22993 28
18395 22991 22994 28
18396 22991 22995 28
18397 22996 22997 28
18398 22996 22998 28
18399 22996 22999 28
18400 22996 23000 28
18401 23001 23002 28
18402 23001 23003 28
18403 23001 23004 28
18404 23001 23005 28
18405 23006 23007 28
18406 23006 23008 28
18407 23006 23009 28
18408 23006 23010 28
18409 23011 23012 28
18410 23011 23013 28
18411 23011 23014 28
18412 23011 23015 28
18413 23016 23017 28
18414 23016 23018 28
18415 23016 23019 28
18416 23016 23020 28
18417 23021 23022 28
18418 23021 23023 28
18419 23021 23024 28
18420 23021 23025 28
18421 23026 23027 28
18422 23026 23028 28
18423 23026 23029 28
18424 23026 23030 28
18425 23031 23032 28
18426 23031 23033 28
18427 23031 23034 28
18428 23031 23035 28
18429 23036 23037 28
18430 23036 23038 28
18431 23036 23039 28
18432 23036 23040 28
18433 23041 23042 28
18434 23041 23043 28
18435 23041 23044 28
18436 23041 23045 28
18437 23046 23047 28
18438 23046 23048 28
18439 23046 23049 28
18440 23046 23050 28
18441 23051 23052 28
18442 23051 23053 28
18443 23051 23054 28
18444 23051 23055 28
18445 23056 23057 28
18446 23056 23058 28
18447 23056 23059 28
18448 23056 23060 28
18449 23061 23062 28
18450 23061 23063 28
18451 23061 23064 28
18452 23061 23065 28
18453 23066 23067 28
18454 23066 23068 28
18455 23066 23069 28
18456 23066 23070 28
18457 23071 23072 28
18458 23071 23073 28
18459 23071 23074 28
18460 23071 23075 28
18461 23076 23077 28
18462 23076 23078 28
18463 23076 23079 28
18464 23076 23080 28
18465 23081 23082 28
18466 23081 23083 28
18467 23081 23084 28
18468 23081 23085 28
18469 23086 23087 28
18470 23086 23088 28
18471 23086 23089 28
18472 23086 23090 28
18473 23091 23092 28
18474 23091 23093 28
18475 23091 23094 28
18476 23091 23095 28
18477 23096 23097 28
18478 23096 23098 28
18479 23096 23099 28
18480 23096 23100 28
18481 23101 23102 28
18482 23101 23103 28
18483 23101 23104 28
18484 23101 23105 28
18485 23106 23107 28
18486 23106 23108 28
18487 23106 23109 28
18488 23106 23110 28
18489 23111 23112 28
18490 23111 23113 28
18491 23111 23114 28
18492 23111 23115 28
18493 23116 23117 28
18494 23116 23118 28
18495 23116 23119 28
18496 23116 23120 28
18497 23121 23122 28
18498 23121 23123 28
18499 23121 23124 28
18500 23121 23125 28
18501 23126 23127 28
18502 23126 23128 28
18503 23126 23129 28
18504 23126 23130 28
18505 23131 23132 28
18506 23131 23133 28
18507 23131 23134 28
18508 23131 23135 28
18509 23136 23137 28
18510 23136 23138 28
18511 23136 23139 28
18512 23136 23140 28
18513 23141 23142 28
18514 23141 23143 28
18515 23141 23144 28
18516 23141 23145 28
18517 23146 23147 28
18518 23146 23148 28
18519 23146 23149 28
18520 23146 23150 28
18521 23151 23152 28
18522 23151 23153 28
18523 23151 23154 28
18524 23151 23155 28
18525 23156 23157 28
18526 23156 23158 28
18527 23156 23159 28
18528 23156 23160 28
18529 23161 23162 28
18530 23161 23163 28
18531 23161 23164 28
18532 23161 23165 28
18533 23166 23167 28
18534 23166 23168 28
18535 23166 23169 28
18536 23166 23170 28
18537 23171 23172 28
18538 23171 23173 28
18539 23171 23174 28
18540 23171 23175 28
18541 23176 23177 28
18542 23176 23178 28
18543 23176 23179 28
18544 23176 23180 28
18545 23181 23182 28
18546 23181 23183 28
18547 23181 23184 28
18548 23181 23185 28
18549 23186 23187 28
18550 23186 23188 28
18551 23186 23189 28
18552 23186 23190 28
18553 23191 23192 28
18554 23191 23193 28
18555 23191 23194 28
18556 23191 23195 28
18557 23196 23197 28
18558 23196 23198 28
18559 23196 23199 28
18560 23196 23200 28
18561 23201 23202 28
18562 23201 23203 28
18563 23201 23204 28
18564 23201 23205 28
18565 23206 23207 28
18566 23206 23208 28
18567 23206 23209 28
18568 23206 23210 28
18569 23211 23212 28
18570 23211 23213 28
18571 23211 23214 28
18572 23211 23215 28
18573 23216 23217 28
18574 23216 23218 28
18575 23216 23219 28
18576 23216 23220 28
18577 23221 23222 28
18578 23221 23223 28
18579 23221 23224 28
18580 23221 23225 28
18581 23226 23227 28
18582 23226 23228 28
18583 23226 23229 28
18584 23226 23230 28
18585 23231 23232 28
18586 23231 23233 28
18587 23231 23234 28
18588 23231 23235 28
18589 23236 23237 28
18590 23236 23238 28
18591 23236 23239 28
18592 23236 23240 28
18593 23241 23242 28
18594 23241 23243 28
18595 23241 23244 28
18596 23241 23245 28
18597 23246 23247 28
18598 23246 23248 28
18599 23246 23249 28
18600 23246 23250 28
18601 23251 23252 28
18602 23251 23253 28
18603 23251 23254 28
18604 23251 23255 28
18605 23256 23257 28
18606 23256 23258 28
18607 23256 23259 28
18608 23256 23260 28
18609 23261 23262 28
18610 23261 23263 28
18611 23261 23264 28
18612 23261 23265 28
18613 23266 23267 28
18614 23266 23268 28
18615 23266 23269 28
18616 23266 23270 28
18617 23271 23272 28
18618 23271 23273 28
18619 23271 23274 28
18620 23271 23275 28
18621 23276 23277 28
18622 23276 23278 28
18623 23276 23279 28
18624 23276 23280 28
18625 23281 23282 28
18626 23281 23283 28
18627 23281 23284 28
18628 23281 23285 28
18629 23286 23287 28
18630 23286 23288 28
18631 23286 23289 28
18632 23286 23290 28
18633 23291 23292 28
18634 23291 23293 28
18635 23291 23294 28
18636 23291 23295 28
18637 23296 23297 28
18638 23296 23298 28
18639 23296 23299 28
18640 23296 23300 28
18641 23301 23302 28
18642 23301 23303 28
18643 23301 23304 28
18644 23301 23305 28
18645 23306 23307 28
18646 23306 23308 28
18647 23306 23309 28
18648 23306 23310 28
18649 23311 23312 28
18650 23311 23313 28
18651 23311 23314 28
18652 23311 23315 28
18653 23316 23317 28
18654 23316 23318 28
18655 23316 23319 28
18656 23316 23320 28
18657 23321 23322 28
18658 23321 23323 28
18659 23321 23324 28
18660 23321 23325 28
18661 23326 23327 28
18662 23326 23328 28
18663 23326 23329 28
18664 23326 23330 28
18665 23331 23332 28
18666 23331 23333 28
18667 23331 23334 28
18668 23331 23335 28
18669 23336 23337 28
18670 23336 23338 28
18671 23336 23339 28
18672 23336 23340 28
18673 23341 23342 28
18674 23341 23343 28
18675 23341 23344 28
18676 23341 23345 28
18677 23346 23347 28
18678 23346 23348 28
18679 23346 23349 28
18680 23346 23350 28
18681 23351 23352 28
18682 23351 23353 28
18683 23351 23354 28
18684 23351 23355 28
18685 23356 23357 28
18686 23356 23358 28
18687 23356 23359 28
18688 23356 23360 28
18689 23361 23362 28
18690 23361 23363 28
18691 23361 23364 28
18692 23361 23365 28
18693 23366 23367 28
18694 23366 23368 28
18695 23366 23369 28
18696 23366 23370 28
18697 23371 23372 28
18698 23371 23373 28
18699 23371 23374 28
18700 23371 23375 28
18701 23376 23377 28
18702 23376 23378 28
18703 23376 23379 28
18704 23376 23380 28
18705 23381 23382 28
18706 23381 23383 28
18707 23381 23384 28
18708 23381 23385 28
18709 23386 23387 28
18710 23386 23388 28
18711 23386 23389 28
18712 23386 23390 28
18713 23391 23392 28
18714 23391 23393 28
18715 23391 23394 28
18716 23391 23395 28
18717 23396 23397 28
18718 23396 23398 28
18719 23396 23399 28
18720 23396 23400 28
18721 23401 23402 28
18722 23401 23403 28
18723 23401 23404 28
18724 23401 23405 28
18725 23406 23407 28
18726 23406 23408 28
18727 23406 23409 28
18728 23406 23410 28
18729 23411 23412 28
18730 23411 23413 28
18731 23411 23414 28
18732 23411 23415 28
18733 23416 23417 28
18734 23416 23418 28
18735 23416 23419 28
18736 23416 23420 28
18737 23421 23422 28
18738 23421 23423 28
18739 23421 23424 28
18740 23421 23425 28
18741 23426 23427 28
18742 23426 23428 28
18743 23426 23429 28
18744 23426 23430 28
18745 23431 23432 28
18746 23431 23433 28
18747 23431 23434 28
18748 23431 23435 28
18749 23436 23437 28
18750 23436 23438 28
18751 23436 23439 28
18752 23436 23440 28
18753 23441 23442 28
18754 23441 23443 28
18755 23441 23444 28
18756 23441 23445 28
18757 23446 23447 28
18758 23446 23448 28
18759 23446 23449 28
18760 23446 23450 28
18761 23451 23452 28
18762 23451 23453 28
18763 23451 23454 28
18764 23451 23455 28
18765 23456 23457 28
18766 23456 23458 28
18767 23456 23459 28
18768 23456 23460 28
18769 23461 23462 28
18770 23461 23463 28
18771 23461 23464 28
18772 23461 23465 28
18773 23466 23467 28
18774 23466 23468 28
18775 23466 23469 28
18776 23466 23470 28
18777 23471 23472 28
18778 23471 23473 28
18779 23471 23474 28
18780 23471 23475 28
18781 23476 23477 28
18782 23476 23478 28
18783 23476 23479 28
18784 23476 23480 28
18785 23481 23482 28
18786 23481 23483 28
18787 23481 23484 28
18788 23481 23485 28
18789 23486 23487 28
18790 23486 23488 28
18791 23486 23489 28
18792 23486 23490 28
18793 23491 23492 28
18794 23491 23493 28
18795 23491 23494 28
18796 23491 23495 28
18797 23496 23497 28
18798 23496 23498 28
18799 23496 23499 28
18800 23496 23500 28
18801 23501 23502 28
18802 23501 23503 28
18803 23501 23504 28
18804 23501 23505 28
18805 23506 23507 28
18806 23506 23508 28
18807 23506 23509 28
18808 23506 23510 28
18809 23511 23512 28
18810 23511 23513 28
18811 23511 23514 28
18812 23511 23515 28
18813 23516 23517 28
18814 23516 23518 28
18815 23516 23519 28
18816 23516 23520 28
18817 23521 23522 28
18818 23521 23523 28
18819 23521 23524 28
18820 23521 23525 28
18821 23526 23527 28
18822 23526 23528 28
18823 23526 23529 28
18824 23526 23530 28
18825 23531 23532 28
18826 23531 23533 28
18827 23531 23534 28
18828 23531 23535 28
18829 23536 23537 28
18830 23536 23538 28
18831 23536 23539 28
18832 23536 23540 28
18833 23541 23542 28
18834 23541 23543 28
18835 23541 23544 28
18836 23541 23545 28
18837 23546 23547 28
18838 23546 23548 28
18839 23546 23549 28
18840 23546 23550 28
18841 23551 23552 28
18842 23551 23553 28
18843 23551 23554 28
18844 23551 23555 28
18845 23556 23557 28
18846 23556 23558 28
18847 23556 23559 28
18848 23556 23560 28
18849 23561 23562 28
18850 23561 23563 28
18851 23561 23564 28
18852 23561 23565 28
18853 23566 23567 28
18854 23566 23568 28
18855 23566 23569 28
18856 23566 23570 28
18857 23571 23572 28
18858 23571 23573 28
18859 23571 23574 28
18860 23571 23575 28
18861 23576 23577 28
18862 23576 23578 28
18863 23576 23579 28
18864 23576 23580 28
18865 23581 23582 28
18866 23581 23583 28
18867 23581 23584 28
18868 23581 23585 28
18869 23586 23587 28
18870 23586 23588 28
18871 23586 23589 28
18872 23586 23590 28
18873 23591 23592 28
18874 23591 23593 28
18875 23591 23594 28
18876 23591 23595 28
18877 23596 23597 28
18878 23596 23598 28
18879 23596 23599 28
18880 23596 23600 28
18881 23601 23602 28
18882 23601 23603 28
18883 23601 23604 28
18884 23601 23605 28
18885 23606 23607 28
18886 23606 23608 28
18887 23606 23609 28
18888 23606 23610 28
18889 23611 23612 28
18890 23611 23613 28
18891 23611 23614 28
18892 23611 23615 28
18893 23616 23617 28
18894 23616 23618 28
18895 23616 23619 28
18896 23616 23620 28
18897 23621 23622 28
18898 23621 23623 28
18899 23621 23624 28
18900 23621 23625 28
18901 23626 23627 28
18902 23626 23628 28
18903 23626 23629 28
18904 23626 23630 28
18905 23631 23632 28
18906 23631 23633 28
18907 23631 23634 28
18908 23631 23635 28
18909 23636 23637 28
18910 23636 23638 28
18911 23636 23639 28
18912 23636 23640 28
18913 23641 23642 28
18914 23641 23643 28
18915 23641 23644 28
18916 23641 23645 28
18917 23646 23647 28
18918 23646 23648 28
18919 23646 23649 28
18920 23646 23650 28
18921 23651 23652 28
18922 23651 23653 28
18923 23651 23654 28
18924 23651 23655 28
18925 23656 23657 28
18926 23656 23658 28
18927 23656 23659 28
18928 23656 23660 28
18929 23661 23662 28
18930 23661 23663 28
18931 23661 23664 28
18932 23661 23665 28
18933 23666 23667 28
18934 23666 23668 28
18935 23666 23669 28
18936 23666 23670 28
18937 23671 23672 28
18938 23671 23673 28
18939 23671 23674 28
18940 23671 23675 28
18941 23676 23677 28
18942 23676 23678 28
18943 23676 23679 28
18944 23676 23680 28
18945 23681 23682 28
18946 23681 23683 28
18947 23681 23684 28
18948 23681 23685 28
18949 23686 23687 28
18950 23686 23688 28
18951 23686 23689 28
18952 23686 23690 28
18953 23691 23692 28
18954 23691 23693 28
18955 23691 23694 28
18956 23691 23695 28
18957 23696 23697 28
18958 23696 23698 28
18959 23696 23699 28
18960 23696 23700 28
18961 23701 23702 28
18962 23701 23703 28
18963 23701 23704 28
18964 23701 23705 28
18965 23706 23707 28
18966 23706 23708 28
18967 23706 23709 28
18968 23706 23710 28
18969 23711 23712 28
18970 23711 23713 28
18971 23711 23714 28
18972 23711 23715 28
18973 23716 23717 28
18974 23716 23718 28
18975 23716 23719 28
18976 23716 23720 28
18977 23721 23722 28
18978 23721 23723 28
18979 23721 23724 28
18980 23721 23725 28
18981 23726 23727 28
18982 23726 23728 28
18983 23726 23729 28
18984 23726 23730 28
18985 23731 23732 28
18986 23731 23733 28
18987 23731 23734 28
18988 23731 23735 28
18989 23736 23737 28
18990 23736 23738 28
18991 23736 23739 28
18992 23736 23740 28
18993 23741 23742 28
18994 23741 23743 28
18995 23741 23744 28
18996 23741 23745 28
18997 23746 23747 28
18998 23746 23748 28
18999 23746 23749 28
19000 23746 23750 28
19001 23751 23752 28
19002 23751 23753 28
19003 23751 23754 28
19004 23751 23755 28
19005 23756 23757 28
19006 23756 23758 28
19007 23756 23759 28
19008 23756 23760 28
19009 23761 23762 28
19010 23761 23763 28
19011 23761 23764 28
19012 23761 23765 28
19013 23766 23767 28
19014 23766 23768 28
19015 23766 23769 28
19016 23766 23770 28
19017 23771 23772 28
19018 23771 23773 28
19019 23771 23774 28
19020 23771 23775 28
19021 23776 23777 28
19022 23776 23778 28
19023 23776 23779 28
19024 23776 23780 28
19025 23781 23782 28
19026 23781 23783 28
19027 23781 23784 28
19028 23781 23785 28
19029 23786 23787 28
19030 23786 23788 28
19031 23786 23789 28
19032 23786 23790 28
19033 23791 23792 28
19034 23791 23793 28
19035 23791 23794 28
19036 23791 23795 28
19037 23796 23797 28
19038 23796 23798 28
19039 23796 23799 28
19040 23796 23800 28
19041 23801 23802 28
19042 23801 23803 28
19043 23801 23804 28
19044 23801 23805 28
19045 23806 23807 28
19046 23806 23808 28
19047 23806 23809 28
19048 23806 23810 28
19049 23811 23812 28
19050 23811 23813 28
19051 23811 23814 28
19052 23811 23815 28
19053 23816 23817 28
19054 23816 23818 28
19055 23816 23819 28
19056 23816 23820 28
19057 23821 23822 28
19058 23821 23823 28
19059 23821 23824 28
19060 23821 23825 28
19061 23826 23827 28
19062 23826 23828 28
19063 23826 23829 28
19064 23826 23830 28
19065 23831 23832 28
19066 23831 23833 28
19067 23831 23834 28
19068 23831 23835 28
19069 23836 23837 28
19070 23836 23838 28
19071 23836 23839 28
19072 23836 23840 28
19073 23841 23842 28
19074 23841 23843 28
19075 23841 23844 28
19076 23841 23845 28
19077 23846 23847 28
19078 23846 23848 28
19079 23846 23849 28
19080 23846 23850 28
19081 23851 23852 28
19082 23851 23853 28
19083 23851 23854 28
19084 23851 23855 28
19085 23856 23857 28
19086 23856 23858 28
19087 23856 23859 28
19088 23856 23860 28
19089 23861 23862 28
19090 23861 23863 28
19091 23861 23864 28
19092 23861 23865 28
19093 23866 23867 28
19094 23866 23868 28
19095 23866 23869 28
19096 23866 23870 28
19097 23871 23872 28
19098 23871 23873 28
19099 23871 23874 28
19100 23871 23875 28
19101 23876 23877 28
19102 23876 23878 28
19103 23876 23879 28
19104 23876 23880 28
19105 23881 23882 28
19106 23881 23883 28
19107 23881 23884 28
19108 23881 23885 28
19109 23886 23887 28
19110 23886 23888 28
19111 23886 23889 28
19112 23886 23890 28
19113 23891 23892 28
19114 23891 23893 28
19115 23891 23894 28
19116 23891 23895 28
19117 23896 23897 28
19118 23896 23898 28
19119 23896 23899 28
19120 23896 23900 28
19121 23901 23902 28
19122 23901 23903 28
19123 23901 23904 28
19124 23901 23905 28
19125 23906 23907 28
19126 23906 23908 28
19127 23906 23909 28
19128 23906 23910 28
19129 23911 23912 28
19130 23911 23913 28
19131 23911 23914 28
19132 23911 23915 28
19133 23916 23917 28
19134 23916 23918 28
19135 23916 23919 28
19136 23916 23920 28
19137 23921 23922 28
19138 23921 23923 28
19139 23921 23924 28
19140 23921 23925 28
19141 23926 23927 28
19142 23926 23928 28
19143 23926 23929 28
19144 23926 23930 28
19145 23931 23932 28
19146 23931 23933 28
19147 23931 23934 28
19148 23931 23935 28
19149 23936 23937 28
19150 23936 23938 28
19151 23936 23939 28
19152 23936 23940 28
19153 23941 23942 28
19154 23941 23943 28
19155 23941 23944 28
19156 23941 23945 28
19157 23946 23947 28
19158 23946 23948 28
19159 23946 23949 28
19160 23946 23950 28
19161 23951 23952 28
19162 23951 23953 28
19163 23951 23954 28
19164 23951 23955 28
19165 23956 23957 28
19166 23956 23958 28
19167 23956 23959 28
19168 23956 23960 28
19169 23961 23962 28
19170 23961 23963 28
19171 23961 23964 28
19172 23961 23965 28
19173 23966 23967 28
19174 23966 23968 28
19175 23966 23969 28
19176 23966 23970 28
19177 23971 23972 28
19178 23971 23973 28
19179 23971 23974 28
19180 23971 23975 28
19181 23976 23977 28
19182 23976 23978 28
19183 23976 23979 28
19184 23976 23980 28
19185 23981 23982 28
19186 23981 23983 28
19187 23981 23984 28
19188 23981 23985 28
19189 23986 23987 28
19190 23986 23988 28
19191 23986 23989 28
19192 23986 23990 28
19193 23991 23992 28
19194 23991 23993 28
19195 23991 23994 28
19196 23991 23995 28
19197 23996 23997 28
19198 23996 23998 28
19199 23996 23999 28
19200 23996 24000 28
19201 24001 24002 28
19202 24001 24003 28
19203 24001 24004 28
19204 24001 24005 28
19205 24006 24007 28
19206 24006 24008 28
19207 24006 24009 28
19208 24006 24010 28
19209 24011 24012 28
19210 24011 24013 28
19211 24011 24014 28
19212 24011 24015 28
19213 24016 24017 28
19214 24016 24018 28
19215 24016 24019 28
19216 24016 24020 28
19217 24021 24022 28
19218 24021 24023 28
19219 24021 24024 28
19220 24021 24025 28
19221 24026 24027 28
19222 24026 24028 28
19223 24026 24029 28
19224 24026 24030 28
19225 24031 24032 28
19226 24031 24033 28
19227 24031 24034 28
19228 24031 24035 28
19229 24036 24037 28
19230 24036 24038 28
19231 24036 24039 28
19232 24036 24040 28
19233 24041 24042 28
19234 24041 24043 28
19235 24041 24044 28
19236 24041 24045 28
19237 24046 24047 28
19238 24046 24048 28
19239 24046 24049 28
19240 24046 24050 28
19241 24051 24052 28
19242 24051 24053 28
19243 24051 24054 28
19244 24051 24055 28
19245 24056 24057 28
19246 24056 24058 28
19247 24056 24059 28
19248 24056 24060 28
19249 24061 24062 28
19250 24061 24063 28
19251 24061 24064 28
19252 24061 24065 28
19253 24066 24067 28
19254 24066 24068 28
19255 24066 24069 28
19256 24066 24070 28
19257 24071 24072 28
19258 24071 24073 28
19259 24071 24074 28
19260 24071 24075 28
19261 24076 24077 28
19262 24076 24078 28
19263 24076 24079 28
19264 24076 24080 28
19265 24081 24082 28
19266 24081 24083 28
19267 24081 24084 28
19268 24081 24085 28
19269 24086 24087 28
19270 24086 24088 28
19271 24086 24089 28
19272 24086 24090 28
19273 24091 24092 28
19274 24091 24093 28
19275 24091 24094 28
19276 24091 24095 28
19277 24096 24097 28
19278 24096 24098 28
19279 24096 24099 28
19280 24096 24100 28
19281 24101 24102 28
19282 24101 24103 28
19283 24101 24104 28
19284 24101 24105 28
19285 24106 24107 28
19286 24106 24108 28
19287 24106 24109 28
19288 24106 24110 28
19289 24111 24112 28
19290 24111 24113 28
19291 24111 24114 28
19292 24111 24115 28
19293 24116 24117 28
19294 24116 24118 28
19295 24116 24119 28
19296 24116 24120 28
19297 24121 24122 28
19298 24121 24123 28
19299 24121 24124 28
19300 24121 24125 28
19301 24126 24127 28
19302 24126 24128 28
19303 24126 24129 28
19304 24126 24130 28
19305 24131 24132 28
19306 24131 24133 28
19307 24131 24134 28
19308 24131 24135 28
19309 24136 24137 28
19310 24136 24138 28
19311 24136 24139 28
19312 24136 24140 28
19313 24141 24142 28
19314 24141 24143 28
19315 24141 24144 28
19316 24141 24145 28
19317 24146 24147 28
19318 24146 24148 28
19319 24146 24149 28
19320 24146 24150 28
19321 24151 24152 28
19322 24151 24153 28
19323 24151 24154 28
19324 24151 24155 28
19325 24156 24157 28
19326 24156 24158 28
19327 24156 24159 28
19328 24156 24160 28
19329 24161 24162 28
19330 24161 24163 28
19331 24161 24164 28
19332 24161 24165 28
19333 24166 24167 28
19334 24166 24168 28
19335 24166 24169 28
19336 24166 24170 28
19337 24171 24172 28
19338 24171 24173 28
19339 24171 24174 28
19340 24171 24175 28
19341 24176 24177 28
19342 24176 24178 28
19343 24176 24179 28
19344 24176 24180 28
19345 24181 24182 28
19346 24181 24183 28
19347 24181 24184 28
19348 24181 24185 28
19349 24186 24187 28
19350 24186 24188 28
19351 24186 24189 28
19352 24186 24190 28
19353 24191 24192 28
19354 24191 24193 28
19355 24191 24194 28
19356 24191 24195 28
19357 24196 24197 28
19358 24196 24198 28
19359 24196 24199 28
19360 24196 24200 28
19361 24201 24202 28
19362 24201 24203 28
19363 24201 24204 28
19364 24201 24205 28
19365 24206 24207 28
19366 24206 24208 28
19367 24206 24209 28
19368 24206 24210 28
19369 24211 24212 28
19370 24211 24213 28
19371 24211 24214 28
19372 24211 24215 28
19373 24216 24217 28
19374 24216 24218 28
19375 24216 24219 28
19376 24216 24220 28
19377 24221 24222 28
19378 24221 24223 28
19379 24221 24224 28
19380 24221 24225 28
19381 24226 24227 28
19382 24226 24228 28
19383 24226 24229 28
19384 24226 24230 28
19385 24231 24232 28
19386 24231 24233 28
19387 24231 24234 28
19388 24231 24235 28
19389 24236 24237 28
19390 24236 24238 28
19391 24236 24239 28
19392 24236 24240 28
19393 24241 24242 28
19394 24241 24243 28
19395 24241 24244 28
19396 24241 24245 28
19397 24246 24247 28
19398 24246 24248 28
19399 24246 24249 28
19400 24246 24250 28
19401 24251 24252 28
19402 24251 24253 28
19403 24251 24254 28
19404 24251 24255 28
19405 24256 24257 28
19406 24256 24258 28
19407 24256 24259 28
19408 24256 24260 28
19409 24261 24262 28
19410 24261 24263 28
19411 24261 24264 28
19412 24261 24265 28
19413 24266 24267 28
19414 24266 24268 28
19415 24266 24269 28
19416 24266 24270 28
19417 24271 24272 28
19418 24271 24273 28
19419 24271 24274 28
19420 24271 24275 28
19421 24276 24277 28
19422 24276 24278 28
19423 24276 24279 28
19424 24276 24280 28
19425 24281 24282 28
19426 24281 24283 28
19427 24281 24284 28
19428 24281 24285 28
19429 24286 24287 28
19430 24286 24288 28
19431 24286 24289 28
19432 24286 24290 28
19433 24291 24292 28
19434 24291 24293 28
19435 24291 24294 28
19436 24291 24295 28
19437 24296 24297 28
19438 24296 24298 28
19439 24296 24299 28
19440 24296 24300 28
19441 24301 24302 28
19442 24301 24303 28
19443 24301 24304 28
19444 24301 24305 28
19445 24306 24307 28
19446 24306 24308 28
19447 24306 24309 28
19448 24306 24310 28
19449 24311 24312 28
19450 24311 24313 28
19451 24311 24314 28
19452 24311 24315 28
19453 24316 24317 28
19454 24316 24318 28
19455 24316 24319 28
19456 24316 24320 28
19457 24321 24322 28
19458 24321 24323 28
19459 24321 24324 28
19460 24321 24325 28
19461 24326 24327 28
19462 24326 24328 28
19463 24326 24329 28
19464 24326 24330 28
19465 24331 24332 28
19466 24331 24333 28
19467 24331 24334 28
19468 24331 24335 28
19469 24336 24337 28
19470 24336 24338 28
19471 24336 24339 28
19472 24336 24340 28
19473 24341 24342 28
19474 24341 24343 28
19475 24341 24344 28
19476 24341 24345 28
19477 24346 24347 28
19478 24346 24348 28
19479 24346 24349 28
19480 24346 24350 28
19481 24351 24352 28
19482 24351 24353 28
19483 24351 24354 28
19484 24351 24355 28
19485 24356 24357 28
19486 24356 24358 28
19487 24356 24359 28
19488 24356 24360 28
19489 24361 24362 28
19490 24361 24363 28
19491 24361 24364 28
19492 24361 24365 28
19493 24366 24367 28
19494 24366 24368 28
19495 24366 24369 28
19496 24366 24370 28
19497 24371 24372 28
19498 24371 24373 28
19499 24371 24374 28
19500 24371 24375 28
19501 24376 24377 28
19502 24376 24378 28
19503 24376 24379 28
19504 24376 24380 28
19505 24381 24382 28
19506 24381 24383 28
19507 24381 24384 28
19508 24381 24385 28
19509 24386 24387 28
19510 24386 24388 28
19511 24386 24389 28
19512 24386 24390 28
19513 24391 24392 28
19514 24391 24393 28
19515 24391 24394 28
19516 24391 24395 28
19517 24396 24397 28
19518 24396 24398 28
19519 24396 24399 28
19520 24396 24400 28
19521 24401 24402 28
19522 24401 24403 28
19523 24401 24404 28
19524 24401 24405 28
19525 24406 24407 28
19526 24406 24408 28
19527 24406 24409 28
19528 24406 24410 28
19529 24411 24412 28
19530 24411 24413 28
19531 24411 24414 28
19532 24411 24415 28
19533 24416 24417 28
19534 24416 24418 28
19535 24416 24419 28
19536 24416 24420 28
19537 24421 24422 28
19538 24421 24423 28
19539 24421 24424 28
19540 24421 24425 28
19541 24426 24427 28
19542 24426 24428 28
19543 24426 24429 28
19544 24426 24430 28
19545 24431 24432 28
19546 24431 24433 28
19547 24431 24434 28
19548 24431 24435 28
19549 24436 24437 28
19550 24436 24438 28
19551 24436 24439 28
19552 24436 24440 28
19553 24441 24442 28
19554 24441 24443 28
19555 24441 24444 28
19556 24441 24445 28
19557 24446 24447 28
19558 24446 24448 28
19559 24446 24449 28
19560 24446 24450 28
19561 24451 24452 28
19562 24451 24453 28
19563 24451 24454 28
19564 24451 24455 28
19565 24456 24457 28
19566 24456 24458 28
19567 24456 24459 28
19568 24456 24460 28
19569 24461 24462 28
19570 24461 24463 28
19571 24461 24464 28
19572 24461 24465 28
19573 24466 24467 28
19574 24466 24468 28
19575 24466 24469 28
19576 24466 24470 28
19577 24471 24472 28
19578 24471 24473 28
19579 24471 24474 28
19580 24471 24475 28
19581 24476 24477 28
19582 24476 24478 28
19583 24476 24479 28
19584 24476 24480 28
19585 24481 24482 28
19586 24481 24483 28
19587 24481 24484 28
19588 24481 24485 28
19589 24486 24487 28
19590 24486 24488 28
19591 24486 24489 28
19592 24486 24490 28
19593 24491 24492 28
19594 24491 24493 28
19595 24491 24494 28
19596 24491 24495 28
19597 24496 24497 28
19598 24496 24498 28
19599 24496 24499 28
19600 24496 24500 28
19601 24501 24502 28
19602 24501 24503 28
19603 24501 24504 28
19604 24501 24505 28
19605 24506 24507 28
19606 24506 24508 28
19607 24506 24509 28
19608 24506 24510 28
19609 24511 24512 28
19610 24511 24513 28
19611 24511 24514 28
19612 24511 24515 28
19613 24516 24517 28
19614 24516 24518 28
19615 24516 24519 28
19616 24516 24520 28
19617 24521 24522 28
19618 24521 24523 28
19619 24521 24524 28
19620 24521 24525 28
19621 24526 24527 28
19622 24526 24528 28
19623 24526 24529 28
19624 24526 24530 28
19625 24531 24532 28
19626 24531 24533 28
19627 24531 24534 28
19628 24531 24535 28
19629 24536 24537 28
19630 24536 24538 28
19631 24536 24539 28
19632 24536 24540 28
19633 24541 24542 28
19634 24541 24543 28
19635 24541 24544 28
19636 24541 24545 28
19637 24546 24547 28
19638 24546 24548 28
19639 24546 24549 28
19640 24546 24550 28
19641 24551 24552 28
19642 24551 24553 28
19643 24551 24554 28
19644 24551 24555 28
19645 24556 24557 28
19646 24556 24558 28
19647 24556 24559 28
19648 24556 24560 28
19649 24561 24562 28
19650 24561 24563 28
19651 24561 24564 28
19652 24561 24565 28
19653 24566 24567 28
19654 24566 24568 28
19655 24566 24569 28
19656 24566 24570 28
19657 24571 24572 28
19658 24571 24573 28
19659 24571 24574 28
19660 24571 24575 28
19661 24576 24577 28
19662 24576 24578 28
19663 24576 24579 28
19664 24576 24580 28
19665 24581 24582 28
19666 24581 24583 28
19667 24581 24584 28
19668 24581 24585 28
19669 24586 24587 28
19670 24586 24588 28
19671 24586 24589 28
19672 24586 24590 28
19673 24591 24592 28
19674 24591 24593 28
19675 24591 24594 28
19676 24591 24595 28
19677 24596 24597 28
19678 24596 24598 28
19679 24596 24599 28
19680 24596 24600 28
19681 24601 24602 28
19682 24601 24603 28
19683 24601 24604 28
19684 24601 24605 28
19685 24606 24607 28
19686 24606 24608 28
19687 24606 24609 28
19688 24606 24610 28
19689 24611 24612 28
19690 24611 24613 28
19691 24611 24614 28
19692 24611 24615 28
19693 24616 24617 28
19694 24616 24618 28
19695 24616 24619 28
19696 24616 24620 28
19697 24621 24622 28
19698 24621 24623 28
19699 24621 24624 28
19700 24621 24625 28
19701 24626 24627 28
19702 24626 24628 28
19703 24626 24629 28
19704 24626 24630 28
19705 24631 24632 28
19706 24631 24633 28
19707 24631 24634 28
19708 24631 24635 28
19709 24636 24637 28
19710 24636 24638 28
19711 24636 24639 28
19712 24636 24640 28
19713 24641 24642 28
19714 24641 24643 28
19715 24641 24644 28
19716 24641 24645 28
19717 24646 24647 28
19718 24646 24648 28
19719 24646 24649 28
19720 24646 24650 28
19721 24651 24652 28
19722 24651 24653 28
19723 24651 24654 28
19724 24651 24655 28
19725 24656 24657 28
19726 24656 24658 28
19727 24656 24659 28
19728 24656 24660 28
19729 24661 24662 28
19730 24661 24663 28
19731 24661 24664 28
19732 24661 24665 28
19733 24666 24667 28
19734 24666 24668 28
19735 24666 24669 28
19736 24666 24670 28
19737 24671 24672 28
19738 24671 24673 28
19739 24671 24674 28
19740 24671 24675 28
19741 24676 24677 28
19742 24676 24678 28
19743 24676 24679 28
19744 24676 24680 28
19745 24681 24682 28
19746 24681 24683 28
19747 24681 24684 28
19748 24681 24685 28
19749 24686 24687 28
19750 24686 24688 28
19751 24686 24689 28
19752 24686 24690 28
19753 24691 24692 28
19754 24691 24693 28
19755 24691 24694 28
19756 24691 24695 28
19757 24696 24697 28
19758 24696 24698 28
19759 24696 24699 28
19760 24696 24700 28
19761 24701 24702 28
19762 24701 24703 28
19763 24701 24704 28
19764 24701 24705 28
19765 24706 24707 28
19766 24706 24708 28
19767 24706 24709 28
19768 24706 24710 28
19769 24711 24712 28
19770 24711 24713 28
19771 24711 24714 28
19772 24711 24715 28
19773 24716 24717 28
19774 24716 24718 28
19775 24716 24719 28
19776 24716 24720 28
19777 24721 24722 28
19778 24721 24723 28
19779 24721 24724 28
19780 24721 24725 28
19781 24726 24727 28
19782 24726 24728 28
19783 24726 24729 28
19784 24726 24730 28
19785 24731 24732 28
19786 24731 24733 28
19787 24731 24734 28
19788 24731 24735 28
19789 24736 24737 28
19790 24736 24738 28
19791 24736 24739 28
19792 24736 24740 28
19793 24741 24742 28
19794 24741 24743 28
19795 24741 24744 28
19796 24741 24745 28
19797 24746 24747 28
19798 24746 24748 28
19799 24746 24749 28
19800 24746 24750 28
19801 24751 24752 28
19802 24751 24753 28
19803 24751 24754 28
19804 24751 24755 28
19805 24756 24757 28
19806 24756 24758 28
19807 24756 24759 28
19808 24756 24760 28
19809 24761 24762 28
19810 24761 24763 28
19811 24761 24764 28
19812 24761 24765 28
19813 24766 24767 28
19814 24766 24768 28
19815 24766 24769 28
19816 24766 24770 28
19817 24771 24772 28
19818 24771 24773 28
19819 24771 24774 28
19820 24771 24775 28
19821 24776 24777 28
19822 24776 24778 28
19823 24776 24779 28
19824 24776 24780 28
19825 24781 24782 28
19826 24781 24783 28
19827 24781 24784 28
19828 24781 24785 28
19829 24786 24787 28
19830 24786 24788 28
19831 24786 24789 28
19832 24786 24790 28
19833 24791 24792 28
19834 24791 24793 28
19835 24791 24794 28
19836 24791 24795 28
19837 24796 24797 28
19838 24796 24798 28
19839 24796 24799 28
19840 24796 24800 28
19841 24801 24802 28
19842 24801 24803 28
19843 24801 24804 28
19844 24801 24805 28
19845 24806 24807 28
19846 24806 24808 28
19847 24806 24809 28
19848 24806 24810 28
19849 24811 24812 28
19850 24811 24813 28
19851 24811 24814 28
19852 24811 24815 28
19853 24816 24817 28
19854 24816 24818 28
19855 24816 24819 28
19856 24816 24820 28
19857 24821 24822 28
19858 24821 24823 28
19859 24821 24824 28
19860 24821 24825 28
19861 24826 24827 28
19862 24826 24828 28
19863 24826 24829 28
19864 24826 24830 28
19865 24831 24832 28
19866 24831 24833 28
19867 24831 24834 28
19868 24831 24835 28
19869 24836 24837 28
19870 24836 24838 28
19871 24836 24839 28
19872 24836 24840 28
19873 24841 24842 28
19874 24841 24843 28
19875 24841 24844 28
19876 24841 24845 28
19877 24846 24847 28
19878 24846 24848 28
19879 24846 24849 28
19880 24846 24850 28
19881 24851 24852 28
19882 24851 24853 28
19883 24851 24854 28
19884 24851 24855 28
19885 24856 24857 28
19886 24856 24858 28
19887 24856 24859 28
19888 24856 24860 28
19889 24861 24862 28
19890 24861 24863 28
19891 24861 24864 28
19892 24861 24865 28
19893 24866 24867 28
19894 24866 24868 28
19895 24866 24869 28
19896 24866 24870 28
19897 24871 24872 28
19898 24871 24873 28
19899 24871 24874 28
19900 24871 24875 28
19901 24876 24877 28
19902 24876 24878 28
19903 24876 24879 28
19904 24876 24880 28
19905 24881 24882 28
19906 24881 24883 28
19907 24881 24884 28
19908 24881 24885 28
19909 24886 24887 28
19910 24886 24888 28
19911 24886 24889 28
19912 24886 24890 28
19913 24891 24892 28
19914 24891 24893 28
19915 24891 24894 28
19916 24891 24895 28
19917 24896 24897 28
19918 24896 24898 28
19919 24896 24899 28
19920 24896 24900 28
19921 24901 24902 28
19922 24901 24903 28
19923 24901 24904 28
19924 24901 24905 28
19925 24906 24907 28
19926 24906 24908 28
19927 24906 24909 28
19928 24906 24910 28
19929 24911 24912 28
19930 24911 24913 28
19931 24911 24914 28
19932 24911 24915 28
19933 24916 24917 28
19934 24916 24918 28
19935 24916 24919 28
19936 24916 24920 28
19937 24921 24922 28
19938 24921 24923 28
19939 24921 24924 28
19940 24921 24925 28
19941 24926 24927 28
19942 24926 24928 28
19943 24926 24929 28
19944 24926 24930 28
19945 24931 24932 28
19946 24931 24933 28
19947 24931 24934 28
19948 24931 24935 28
19949 24936 24937 28
19950 24936 24938 28
19951 24936 24939 28
19952 24936 24940 28
19953 24941 24942 28
19954 24941 24943 28
19955 24941 24944 28
19956 24941 24945 28
19957 24946 24947 28
19958 24946 24948 28
19959 24946 24949 28
19960 24946 24950 28
19961 24951 24952 28
19962 24951 24953 28
19963 24951 24954 28
19964 24951 24955 28
19965 24956 24957 28
19966 24956 24958 28
19967 24956 24959 28
19968 24956 24960 28
19969 24961 24962 28
19970 24961 24963 28
19971 24961 24964 28
19972 24961 24965 28
19973 24966 24967 28
19974 24966 24968 28
19975 24966 24969 28
19976 24966 24970 28
19977 24971 24972 28
19978 24971 24973 28
19979 24971 24974 28
19980 24971 24975 28
19981 24976 24977 28
19982 24976 24978 28
19983 24976 24979 28
19984 24976 24980 28
19985 24981 24982 28
19986 24981 24983 28
19987 24981 24984 28
19988 24981 24985 28
19989 24986 24987 28
19990 24986 24988 28
19991 24986 24989 28
19992 24986 24990 28
19993 24991 24992 28
19994 24991 24993 28
19995 24991 24994 28
19996 24991 24995 28
19997 24996 24997 28
19998 24996 24998 28
19999 24996 24999 28
20000 24996 25000 28
20001 25001 25002 28
20002 25001 25003 28
20003 25001 25004 28
20004 25001 25005 28
20005 25006 25007 28
20006 25006 25008 28
20007 25006 25009 28
20008 25006 25010 28
20009 25011 25012 28
20010 25011 25013 28
20011 25011 25014 28
20012 25011 25015 28
20013 25016 25017 28
20014 25016 25018 28
20015 25016 25019 28
20016 25016 25020 28
20017 25021 25022 28
20018 25021 25023 28
20019 25021 25024 28
20020 25021 25025 28
20021 25026 25027 28
20022 25026 25028 28
20023 25026 25029 28
20024 25026 25030 28
20025 25031 25032 28
20026 25031 25033 28
20027 25031 25034 28
20028 25031 25035 28
20029 25036 25037 28
20030 25036 25038 28
20031 25036 25039 28
20032 25036 25040 28
20033 25041 25042 28
20034 25041 25043 28
20035 25041 25044 28
20036 25041 25045 28
20037 25046 25047 28
20038 25046 25048 28
20039 25046 25049 28
20040 25046 25050 28
20041 25051 25052 28
20042 25051 25053 28
20043 25051 25054 28
20044 25051 25055 28
20045 25056 25057 28
20046 25056 25058 28
20047 25056 25059 28
20048 25056 25060 28
20049 25061 25062 28
20050 25061 25063 28
20051 25061 25064 28
20052 25061 25065 28
20053 25066 25067 28
20054 25066 25068 28
20055 25066 25069 28
20056 25066 25070 28
20057 25071 25072 28
20058 25071 25073 28
20059 25071 25074 28
20060 25071 25075 28
20061 25076 25077 28
20062 25076 25078 28
20063 25076 25079 28
20064 25076 25080 28
20065 25081 25082 28
20066 25081 25083 28
20067 25081 25084 28
20068 25081 25085 28
20069 25086 25087 28
20070 25086 25088 28
20071 25086 25089 28
20072 25086 25090 28
20073 25091 25092 28
20074 25091 25093 28
20075 25091 25094 28
20076 25091 25095 28
20077 25096 25097 28
20078 25096 25098 28
20079 25096 25099 28
20080 25096 25100 28
20081 25101 25102 28
20082 25101 25103 28
20083 25101 25104 28
20084 25101 25105 28
20085 25106 25107 28
20086 25106 25108 28
20087 25106 25109 28
20088 25106 25110 28
20089 25111 25112 28
20090 25111 25113 28
20091 25111 25114 28
20092 25111 25115 28
20093 25116 25117 28
20094 25116 25118 28
20095 25116 25119 28
20096 25116 25120 28
20097 25121 25122 28
20098 25121 25123 28
20099 25121 25124 28
20100 25121 25125 28
20101 25126 25127 28
20102 25126 25128 28
20103 25126 25129 28
20104 25126 25130 28
20105 25131 25132 28
20106 25131 25133 28
20107 25131 25134 28
20108 25131 25135 28
20109 25136 25137 28
20110 25136 25138 28
20111 25136 25139 28
20112 25136 25140 28
20113 25141 25142 28
20114 25141 25143 28
20115 25141 25144 28
20116 25141 25145 28
20117 25146 25147 28
20118 25146 25148 28
20119 25146 25149 28
20120 25146 25150 28
20121 25151 25152 28
20122 25151 25153 28
20123 25151 25154 28
20124 25151 25155 28
20125 25156 25157 28
20126 25156 25158 28
20127 25156 25159 28
20128 25156 25160 28
20129 25161 25162 28
20130 25161 25163 28
20131 25161 25164 28
20132 25161 25165 28
20133 25166 25167 28
20134 25166 25168 28
20135 25166 25169 28
20136 25166 25170 28
20137 25171 25172 28
20138 25171 25173 28
20139 25171 25174 28
20140 25171 25175 28
20141 25176 25177 28
20142 25176 25178 28
20143 25176 25179 28
20144 25176 25180 28
20145 25181 25182 28
20146 25181 25183 28
20147 25181 25184 28
20148 25181 25185 28
20149 25186 25187 28
20150 25186 25188 28
20151 25186 25189 28
20152 25186 25190 28
20153 25191 25192 28
20154 25191 25193 28
20155 25191 25194 28
20156 25191 25195 28
20157 25196 25197 28
20158 25196 25198 28
20159 25196 25199 28
20160 25196 25200 28
20161 25201 25202 28
20162 25201 25203 28
20163 25201 25204 28
20164 25201 25205 28
20165 25206 25207 28
20166 25206 25208 28
20167 25206 25209 28
20168 25206 25210 28
20169 25211 25212 28
20170 25211 25213 28
20171 25211 25214 28
20172 25211 25215 28
20173 25216 25217 28
20174 25216 25218 28
20175 25216 25219 28
20176 25216 25220 28
20177 25221 25222 28
20178 25221 25223 28
20179 25221 25224 28
20180 25221 25225 28
20181 25226 25227 28
20182 25226 25228 28
20183 25226 25229 28
20184 25226 25230 28
20185 25231 25232 28
20186 25231 25233 28
20187 25231 25234 28
20188 25231 25235 28
20189 25236 25237 28
20190 25236 25238 28
20191 25236 25239 28
20192 25236 25240 28
20193 25241 25242 28
20194 25241 25243 28
20195 25241 25244 28
20196 25241 25245 28
20197 25246 25247 28
20198 25246 25248 28
20199 25246 25249 28
20200 25246 25250 28
20201 25251 25252 28
20202 25251 25253 28
20203 25251 25254 28
20204 25251 25255 28
20205 25256 25257 28
20206 25256 25258 28
20207 25256 25259 28
20208 25256 25260 28
20209 25261 25262 28
20210 25261 25263 28
20211 25261 25264 28
20212 25261 25265 28
20213 25266 25267 28
20214 25266 25268 28
20215 25266 25269 28
20216 25266 25270 28
20217 25271 25272 28
20218 25271 25273 28
20219 25271 25274 28
20220 25271 25275 28
20221 25276 25277 28
20222 25276 25278 28
20223 25276 25279 28
20224 25276 25280 28
20225 25281 25282 28
20226 25281 25283 28
20227 25281 25284 28
20228 25281 25285 28
20229 25286 25287 28
20230 25286 25288 28
20231 25286 25289 28
20232 25286 25290 28
20233 25291 25292 28
20234 25291 25293 28
20235 25291 25294 28
20236 25291 25295 28
20237 25296 25297 28
20238 25296 25298 28
20239 25296 25299 28
20240 25296 25300 28
20241 25301 25302 28
20242 25301 25303 28
20243 25301 25304 28
20244 25301 25305 28
20245 25306 25307 28
20246 25306 25308 28
20247 25306 25309 28
20248 25306 25310 28
20249 25311 25312 28
20250 25311 25313 28
20251 25311 25314 28
20252 25311 25315 28
20253 25316 25317 28
20254 25316 25318 28
20255 25316 25319 28
20256 25316 25320 28
20257 25321 25322 28
20258 25321 25323 28
20259 25321 25324 28
20260 25321 25325 28
20261 25326 25327 28
20262 25326 25328 28
20263 25326 25329 28
20264 25326 25330 28
20265 25331 25332 28
20266 25331 25333 28
20267 25331 25334 28
20268 25331 25335 28
20269 25336 25337 28
20270 25336 25338 28
20271 25336 25339 28
20272 25336 25340 28
20273 25341 25342 28
20274 25341 25343 28
20275 25341 25344 28
20276 25341 25345 28
20277 25346 25347 28
20278 25346 25348 28
20279 25346 25349 28
20280 25346 25350 28
20281 25351 25352 28
20282 25351 25353 28
20283 25351 25354 28
20284 25351 25355 28
20285 25356 25357 28
20286 25356 25358 28
20287 25356 25359 28
20288 25356 25360 28
20289 25361 25362 28
20290 25361 25363 28
20291 25361 25364 28
20292 25361 25365 28
20293 25366 25367 28
20294 25366 25368 28
20295 25366 25369 28
20296 25366 25370 28
20297 25371 25372 28
20298 25371 25373 28
20299 25371 25374 28
20300 25371 25375 28
20301 25376 25377 28
20302 25376 25378 28
20303 25376 25379 28
20304 25376 25380 28
20305 25381 25382 28
20306 25381 25383 28
20307 25381 25384 28
20308 25381 25385 28
20309 25386 25387 28
20310 25386 25388 28
20311 25386 25389 28
20312 25386 25390 28
20313 25391 25392 28
20314 25391 25393 28
20315 25391 25394 28
20316 25391 25395 28
20317 25396 25397 28
20318 25396 25398 28
20319 25396 25399 28
20320 25396 25400 28
20321 25401 25402 28
20322 25401 25403 28
20323 25401 25404 28
20324 25401 25405 28
20325 25406 25407 28
20326 25406 25408 28
20327 25406 25409 28
20328 25406 25410 28
20329 25411 25412 28
20330 25411 25413 28
20331 25411 25414 28
20332 25411 25415 28
20333 25416 25417 28
20334 25416 25418 28
20335 25416 25419 28
20336 25416 25420 28
20337 25421 25422 28
20338 25421 25423 28
20339 25421 25424 28
20340 25421 25425 28
20341 25426 25427 28
20342 25426 25428 28
20343 25426 25429 28
20344 25426 25430 28
20345 25431 25432 28
20346 25431 25433 28
20347 25431 25434 28
20348 25431 25435 28
20349 25436 25437 28
20350 25436 25438 28
20351 25436 25439 28
20352 25436 25440 28
20353 25441 25442 28
20354 25441 25443 28
20355 25441 25444 28
20356 25441 25445 28
20357 25446 25447 28
20358 25446 25448 28
20359 25446 25449 28
20360 25446 25450 28
20361 25451 25452 28
20362 25451 25453 28
20363 25451 25454 28
20364 25451 25455 28
20365 25456 25457 28
20366 25456 25458 28
20367 25456 25459 28
20368 25456 25460 28
20369 25461 25462 28
20370 25461 25463 28
20371 25461 25464 28
20372 25461 25465 28
20373 25466 25467 28
20374 25466 25468 28
20375 25466 25469 28
20376 25466 25470 28
20377 25471 25472 28
20378 25471 25473 28
20379 25471 25474 28
20380 25471 25475 28
20381 25476 25477 28
20382 25476 25478 28
20383 25476 25479 28
20384 25476 25480 28
20385 25481 25482 28
20386 25481 25483 28
20387 25481 25484 28
20388 25481 25485 28
20389 25486 25487 28
20390 25486 25488 28
20391 25486 25489 28
20392 25486 25490 28
20393 25491 25492 28
20394 25491 25493 28
20395 25491 25494 28
20396 25491 25495 28
20397 25496 25497 28
20398 25496 25498 28
20399 25496 25499 28
20400 25496 25500 28
20401 25501 25502 28
20402 25501 25503 28
20403 25501 25504 28
20404 25501 25505 28
20405 25506 25507 28
20406 25506 25508 28
20407 25506 25509 28
20408 25506 25510 28
20409 25511 25512 28
20410 25511 25513 28
20411 25511 25514 28
20412 25511 25515 28
20413 25516 25517 28
20414 25516 25518 28
20415 25516 25519 28
20416 25516 25520 28
20417 25521 25522 28
20418 25521 25523 28
20419 25521 25524 28
20420 25521 25525 28
20421 25526 25527 28
20422 25526 25528 28
20423 25526 25529 28
20424 25526 25530 28
20425 25531 25532 28
20426 25531 25533 28
20427 25531 25534 28
20428 25531 25535 28
20429 25536 25537 28
20430 25536 25538 28
20431 25536 25539 28
20432 25536 25540 28
20433 25541 25542 28
20434 25541 25543 28
20435 25541 25544 28
20436 25541 25545 28
20437 25546 25547 28
20438 25546 25548 28
20439 25546 25549 28
20440 25546 25550 28
20441 25551 25552 28
20442 25551 25553 28
20443 25551 25554 28
20444 25551 25555 28
20445 25556 25557 28
20446 25556 25558 28
20447 25556 25559 28
20448 25556 25560 28
20449 25561 25562 28
20450 25561 25563 28
20451 25561 25564 28
20452 25561 25565 28
20453 25566 25567 28
20454 25566 25568 28
20455 25566 25569 28
20456 25566 25570 28
20457 25571 25572 28
20458 25571 25573 28
20459 25571 25574 28
20460 25571 25575 28
20461 25576 25577 28
20462 25576 25578 28
20463 25576 25579 28
20464 25576 25580 28
20465 25581 25582 28
20466 25581 25583 28
20467 25581 25584 28
20468 25581 25585 28
20469 25586 25587 28
20470 25586 25588 28
20471 25586 25589 28
20472 25586 25590 28
20473 25591 25592 28
20474 25591 25593 28
20475 25591 25594 28
20476 25591 25595 28
20477 25596 25597 28
20478 25596 25598 28
20479 25596 25599 28
20480 25596 25600 28
20481 25601 25602 28
20482 25601 25603 28
20483 25601 25604 28
20484 25601 25605 28
20485 25606 25607 28
20486 25606 25608 28
20487 25606 25609 28
20488 25606 25610 28
20489 25611 25612 28
20490 25611 25613 28
20491 25611 25614 28
20492 25611 25615 28
20493 25616 25617 28
20494 25616 25618 28
20495 25616 25619 28
20496 25616 25620 28
20497 25621 25622 28
20498 25621 25623 28
20499 25621 25624 28
20500 25621 25625 28
20501 25626 25627 28
20502 25626 25628 28
20503 25626 25629 28
20504 25626 25630 28
20505 25631 25632 28
20506 25631 25633 28
20507 25631 25634 28
20508 25631 25635 28
20509 25636 25637 28
20510 25636 25638 28
20511 25636 25639 28
20512 25636 25640 28
20513 25641 25642 28
20514 25641 25643 28
20515 25641 25644 28
20516 25641 25645 28
20517 25646 25647 28
20518 25646 25648 28
20519 25646 25649 28
20520 25646 25650 28
20521 25651 25652 28
20522 25651 25653 28
20523 25651 25654 28
20524 25651 25655 28
20525 25656 25657 28
20526 25656 25658 28
20527 25656 25659 28
20528 25656 25660 28
20529 25661 25662 28
20530 25661 25663 28
20531 25661 25664 28
20532 25661 25665 28
20533 25666 25667 28
20534 25666 25668 28
20535 25666 25669 28
20536 25666 25670 28
20537 25671 25672 28
20538 25671 25673 28
20539 25671 25674 28
20540 25671 25675 28
20541 25676 25677 28
20542 25676 25678 28
20543 25676 25679 28
20544 25676 25680 28
20545 25681 25682 28
20546 25681 25683 28
20547 25681 25684 28
20548 25681 25685 28
20549 25686 25687 28
20550 25686 25688 28
20551 25686 25689 28
20552 25686 25690 28
20553 25691 25692 28
20554 25691 25693 28
20555 25691 25694 28
20556 25691 25695 28
20557 25696 25697 28
20558 25696 25698 28
20559 25696 25699 28
20560 25696 25700 28
20561 25701 25702 28
20562 25701 25703 28
20563 25701 25704 28
20564 25701 25705 28
20565 25706 25707 28
20566 25706 25708 28
20567 25706 25709 28
20568 25706 25710 28
20569 25711 25712 28
20570 25711 25713 28
20571 25711 25714 28
20572 25711 25715 28
20573 25716 25717 28
20574 25716 25718 28
20575 25716 25719 28
20576 25716 25720 28
20577 25721 25722 28
20578 25721 25723 28
20579 25721 25724 28
20580 25721 25725 28
20581 25726 25727 28
20582 25726 25728 28
20583 25726 25729 28
20584 25726 25730 28
20585 25731 25732 28
20586 25731 25733 28
20587 25731 25734 28
20588 25731 25735 28
20589 25736 25737 28
20590 25736 25738 28
20591 25736 25739 28
20592 25736 25740 28
20593 25741 25742 28
20594 25741 25743 28
20595 25741 25744 28
20596 25741 25745 28
20597 25746 25747 28
20598 25746 25748 28
20599 25746 25749 28
20600 25746 25750 28
20601 25751 25752 28
20602 25751 25753 28
20603 25751 25754 28
20604 25751 25755 28
20605 25756 25757 28
20606 25756 25758 28
20607 25756 25759 28
20608 25756 25760 28
20609 25761 25762 28
20610 25761 25763 28
20611 25761 25764 28
20612 25761 25765 28
20613 25766 25767 28
20614 25766 25768 28
20615 25766 25769 28
20616 25766 25770 28
20617 25771 25772 28
20618 25771 25773 28
20619 25771 25774 28
20620 25771 25775 28
20621 25776 25777 28
20622 25776 25778 28
20623 25776 25779 28
20624 25776 25780 28
20625 25781 25782 28
20626 25781 25783 28
20627 25781 25784 28
20628 25781 25785 28
20629 25786 25787 28
20630 25786 25788 28
20631 25786 25789 28
20632 25786 25790 28
20633 25791 25792 28
20634 25791 25793 28
20635 25791 25794 28
20636 25791 25795 28
20637 25796 25797 28
20638 25796 25798 28
20639 25796 25799 28
20640 25796 25800 28
20641 25801 25802 28
20642 25801 25803 28
20643 25801 25804 28
20644 25801 25805 28
20645 25806 25807 28
20646 25806 25808 28
20647 25806 25809 28
20648 25806 25810 28
20649 25811 25812 28
20650 25811 25813 28
20651 25811 25814 28
20652 25811 25815 28
20653 25816 25817 28
20654 25816 25818 28
20655 25816 25819 28
20656 25816 25820 28
20657 25821 25822 28
20658 25821 25823 28
20659 25821 25824 28
20660 25821 25825 28
20661 25826 25827 28
20662 25826 25828 28
20663 25826 25829 28
20664 25826 25830 28
20665 25831 25832 28
20666 25831 25833 28
20667 25831 25834 28
20668 25831 25835 28
20669 25836 25837 28
20670 25836 25838 28
20671 25836 25839 28
20672 25836 25840 28
20673 25841 25842 28
20674 25841 25843 28
20675 25841 25844 28
20676 25841 25845 28
20677 25846 25847 28
20678 25846 25848 28
20679 25846 25849 28
20680 25846 25850 28
20681 25851 25852 28
20682 25851 25853 28
20683 25851 25854 28
20684 25851 25855 28
20685 25856 25857 28
20686 25856 25858 28
20687 25856 25859 28
20688 25856 25860 28
20689 25861 25862 28
20690 25861 25863 28
20691 25861 25864 28
20692 25861 25865 28
20693 25866 25867 28
20694 25866 25868 28
20695 25866 25869 28
20696 25866 25870 28
20697 25871 25872 28
20698 25871 25873 28
20699 25871 25874 28
20700 25871 25875 28
20701 25876 25877 28
20702 25876 25878 28
20703 25876 25879 28
20704 25876 25880 28
20705 25881 25882 28
20706 25881 25883 28
20707 25881 25884 28
20708 25881 25885 28
20709 25886 25887 28
20710 25886 25888 28
20711 25886 25889 28
20712 25886 25890 28
20713 25891 25892 28
20714 25891 25893 28
20715 25891 25894 28
20716 25891 25895 28
20717 25896 25897 28
20718 25896 25898 28
20719 25896 25899 28
20720 25896 25900 28
20721 25901 25902 28
20722 25901 25903 28
20723 25901 25904 28
20724 25901 25905 28
20725 25906 25907 28
20726 25906 25908 28
20727 25906 25909 28
20728 25906 25910 28
20729 25911 25912 28
20730 25911 25913 28
20731 25911 25914 28
20732 25911 25915 28
20733 25916 25917 28
20734 25916 25918 28
20735 25916 25919 28
20736 25916 25920 28
20737 25921 25922 28
20738 25921 25923 28
20739 25921 25924 28
20740 25921 25925 28
20741 25926 25927 28
20742 25926 25928 28
20743 25926 25929 28
20744 25926 25930 28
20745 25931 25932 28
20746 25931 25933 28
20747 25931 25934 28
20748 25931 25935 28
20749 25936 25937 28
20750 25936 25938 28
20751 25936 25939 28
20752 25936 25940 28
20753 25941 25942 28
20754 25941 25943 28
20755 25941 25944 28
20756 25941 25945 28
20757 25946 25947 28
20758 25946 25948 28
20759 25946 25949 28
20760 25946 25950 28
20761 25951 25952 28
20762 25951 25953 28
20763 25951 25954 28
20764 25951 25955 28
20765 25956 25957 28
20766 25956 25958 28
20767 25956 25959 28
20768 25956 25960 28
20769 25961 25962 28
20770 25961 25963 28
20771 25961 25964 28
20772 25961 25965 28
20773 25966 25967 28
20774 25966 25968 28
20775 25966 25969 28
20776 25966 25970 28
20777 25971 25972 28
20778 25971 25973 28
20779 25971 25974 28
20780 25971 25975 28
20781 25976 25977 28
20782 25976 25978 28
20783 25976 25979 28
20784 25976 25980 28
20785 25981 25982 28
20786 25981 25983 28
20787 25981 25984 28
20788 25981 25985 28
20789 25986 25987 28
20790 25986 25988 28
20791 25986 25989 28
20792 25986 25990 28
20793 25991 25992 28
20794 25991 25993 28
20795 25991 25994 28
20796 25991 25995 28
20797 25996 25997 28
20798 25996 25998 28
20799 25996 25999 28
20800 25996 26000 28
20801 26001 26002 28
20802 26001 26003 28
20803 26001 26004 28
20804 26001 26005 28
20805 26006 26007 28
20806 26006 26008 28
20807 26006 26009 28
20808 26006 26010 28
20809 26011 26012 28
20810 26011 26013 28
20811 26011 26014 28
20812 26011 26015 28
20813 26016 26017 28
20814 26016 26018 28
20815 26016 26019 28
20816 26016 26020 28
20817 26021 26022 28
20818 26021 26023 28
20819 26021 26024 28
20820 26021 26025 28
20821 26026 26027 28
20822 26026 26028 28
20823 26026 26029 28
20824 26026 26030 28
20825 26031 26032 28
20826 26031 26033 28
20827 26031 26034 28
20828 26031 26035 28
20829 26036 26037 28
20830 26036 26038 28
20831 26036 26039 28
20832 26036 26040 28
20833 26041 26042 28
20834 26041 26043 28
20835 26041 26044 28
20836 26041 26045 28
20837 26046 26047 28
20838 26046 26048 28
20839 26046 26049 28
20840 26046 26050 28
20841 26051 26052 28
20842 26051 26053 28
20843 26051 26054 28
20844 26051 26055 28
20845 26056 26057 28
20846 26056 26058 28
20847 26056 26059 28
20848 26056 26060 28
20849 26061 26062 28
20850 26061 26063 28
20851 26061 26064 28
20852 26061 26065 28
20853 26066 26067 28
20854 26066 26068 28
20855 26066 26069 28
20856 26066 26070 28
20857 26071 26072 28
20858 26071 26073 28
20859 26071 26074 28
20860 26071 26075 28
20861 26076 26077 28
20862 26076 26078 28
20863 26076 26079 28
20864 26076 26080 28
20865 26081 26082 28
20866 26081 26083 28
20867 26081 26084 28
20868 26081 26085 28
20869 26086 26087 28
20870 26086 26088 28
20871 26086 26089 28
20872 26086 26090 28
20873 26091 26092 28
20874 26091 26093 28
20875 26091 26094 28
20876 26091 26095 28
20877 26096 26097 28
20878 26096 26098 28
20879 26096 26099 28
20880 26096 26100 28
20881 26101 26102 28
20882 26101 26103 28
20883 26101 26104 28
20884 26101 26105 28
20885 26106 26107 28
20886 26106 26108 28
20887 26106 26109 28
20888 26106 26110 28
20889 26111 26112 28
20890 26111 26113 28
20891 26111 26114 28
20892 26111 26115 28
20893 26116 26117 28
20894 26116 26118 28
20895 26116 26119 28
20896 26116 26120 28
20897 26121 26122 28
20898 26121 26123 28
20899 26121 26124 28
20900 26121 26125 28
20901 26126 26127 28
20902 26126 26128 28
20903 26126 26129 28
20904 26126 26130 28
20905 26131 26132 28
20906 26131 26133 28
20907 26131 26134 28
20908 26131 26135 28
20909 26136 26137 28
20910 26136 26138 28
20911 26136 26139 28
20912 26136 26140 28
20913 26141 26142 28
20914 26141 26143 28
20915 26141 26144 28
20916 26141 26145 28
20917 26146 26147 28
20918 26146 26148 28
20919 26146 26149 28
20920 26146 26150 28
20921 26151 26152 28
20922 26151 26153 28
20923 26151 26154 28
20924 26151 26155 28
20925 26156 26157 28
20926 26156 26158 28
20927 26156 26159 28
20928 26156 26160 28
20929 26161 26162 28
20930 26161 26163 28
20931 26161 26164 28
20932 26161 26165 28
20933 26166 26167 28
20934 26166 26168 28
20935 26166 26169 28
20936 26166 26170 28
20937 26171 26172 28
20938 26171 26173 28
20939 26171 26174 28
20940 26171 26175 28
20941 26176 26177 28
20942 26176 26178 28
20943 26176 26179 28
20944 26176 26180 28
20945 26181 26182 28
20946 26181 26183 28
20947 26181 26184 28
20948 26181 26185 28
20949 26186 26187 28
20950 26186 26188 28
20951 26186 26189 28
20952 26186 26190 28
20953 26191 26192 28
20954 26191 26193 28
20955 26191 26194 28
20956 26191 26195 28
20957 26196 26197 28
20958 26196 26198 28
20959 26196 26199 28
20960 26196 26200 28
20961 26201 26202 28
20962 26201 26203 28
20963 26201 26204 28
20964 26201 26205 28
20965 26206 26207 28
20966 26206 26208 28
20967 26206 26209 28
20968 26206 26210 28
20969 26211 26212 28
20970 26211 26213 28
20971 26211 26214 28
20972 26211 26215 28
20973 26216 26217 28
20974 26216 26218 28
20975 26216 26219 28
20976 26216 26220 28
20977 26221 26222 28
20978 26221 26223 28
20979 26221 26224 28
20980 26221 26225 28
20981 26226 26227 28
20982 26226 26228 28
20983 26226 26229 28
20984 26226 26230 28
20985 26231 26232 28
20986 26231 26233 28
20987 26231 26234 28
20988 26231 26235 28
20989 26236 26237 28
20990 26236 26238 28
20991 26236 26239 28
20992 26236 26240 28
20993 26241 26242 28
20994 26241 26243 28
20995 26241 26244 28
20996 26241 26245 28
20997 26246 26247 28
20998 26246 26248 28
20999 26246 26249 28
21000 26246 26250 28
21001 26251 26252 28
21002 26251 26253 28
21003 26251 26254 28
21004 26251 26255 28
21005 26256 26257 28
21006 26256 26258 28
21007 26256 26259 28
21008 26256 26260 28
21009 26261 26262 28
21010 26261 26263 28
21011 26261 26264 28
21012 26261 26265 28
21013 26266 26267 28
21014 26266 26268 28
21015 26266 26269 28
21016 26266 26270 28
21017 26271 26272 28
21018 26271 26273 28
21019 26271 26274 28
21020 26271 26275 28
21021 26276 26277 28
21022 26276 26278 28
21023 26276 26279 28
21024 26276 26280 28
21025 26281 26282 28
21026 26281 26283 28
21027 26281 26284 28
21028 26281 26285 28
21029 26286 26287 28
21030 26286 26288 28
21031 26286 26289 28
21032 26286 26290 28
21033 26291 26292 28
21034 26291 26293 28
21035 26291 26294 28
21036 26291 26295 28
21037 26296 26297 28
21038 26296 26298 28
21039 26296 26299 28
21040 26296 26300 28
21041 26301 26302 28
21042 26301 26303 28
21043 26301 26304 28
21044 26301 26305 28
21045 26306 26307 28
21046 26306 26308 28
21047 26306 26309 28
21048 26306 26310 28
21049 26311 26312 28
21050 26311 26313 28
21051 26311 26314 28
21052 26311 26315 28
21053 26316 26317 28
21054 26316 26318 28
21055 26316 26319 28
21056 26316 26320 28
21057 26321 26322 28
21058 26321 26323 28
21059 26321 26324 28
21060 26321 26325 28
21061 26326 26327 28
21062 26326 26328 28
21063 26326 26329 28
21064 26326 26330 28
21065 26331 26332 28
21066 26331 26333 28
21067 26331 26334 28
21068 26331 26335 28
21069 26336 26337 28
21070 26336 26338 28
21071 26336 26339 28
21072 26336 26340 28
21073 26341 26342 28
21074 26341 26343 28
21075 26341 26344 28
21076 26341 26345 28
21077 26346 26347 28
21078 26346 26348 28
21079 26346 26349 28
21080 26346 26350 28
21081 26351 26352 28
21082 26351 26353 28
21083 26351 26354 28
21084 26351 26355 28
21085 26356 26357 28
21086 26356 26358 28
21087 26356 26359 28
21088 26356 26360 28
21089 26361 26362 28
21090 26361 26363 28
21091 26361 26364 28
21092 26361 26365 28
21093 26366 26367 28
21094 26366 26368 28
21095 26366 26369 28
21096 26366 26370 28
21097 26371 26372 28
21098 26371 26373 28
21099 26371 26374 28
21100 26371 26375 28
21101 26376 26377 28
21102 26376 26378 28
21103 26376 26379 28
21104 26376 26380 28
21105 26381 26382 28
21106 26381 26383 28
21107 26381 26384 28
21108 26381 26385 28
21109 26386 26387 28
21110 26386 26388 28
21111 26386 26389 28
21112 26386 26390 28
21113 26391 26392 28
21114 26391 26393 28
21115 26391 26394 28
21116 26391 26395 28
21117 26396 26397 28
21118 26396 26398 28
21119 26396 26399 28
21120 26396 26400 28
21121 26401 26402 28
21122 26401 26403 28
21123 26401 26404 28
21124 26401 26405 28
21125 26406 26407 28
21126 26406 26408 28
21127 26406 26409 28
21128 26406 26410 28
21129 26411 26412 28
21130 26411 26413 28
21131 26411 26414 28
21132 26411 26415 28
21133 26416 26417 28
21134 26416 26418 28
21135 26416 26419 28
21136 26416 26420 28
21137 26421 26422 28
21138 26421 26423 28
21139 26421 26424 28
21140 26421 26425 28
21141 26426 26427 28
21142 26426 26428 28
21143 26426 26429 28
21144 26426 26430 28
21145 26431 26432 28
21146 26431 26433 28
21147 26431 26434 28
21148 26431 26435 28
21149 26436 26437 28
21150 26436 26438 28
21151 26436 26439 28
21152 26436 26440 28
21153 26441 26442 28
21154 26441 26443 28
21155 26441 26444 28
21156 26441 26445 28
21157 26446 26447 28
21158 26446 26448 28
21159 26446 26449 28
21160 26446 26450 28
21161 26451 26452 28
21162 26451 26453 28
21163 26451 26454 28
21164 26451 26455 28
21165 26456 26457 28
21166 26456 26458 28
21167 26456 26459 28
21168 26456 26460 28
21169 26461 26462 28
21170 26461 26463 28
21171 26461 26464 28
21172 26461 26465 28
21173 26466 26467 28
21174 26466 26468 28
21175 26466 26469 28
21176 26466 26470 28
21177 26471 26472 28
21178 26471 26473 28
21179 26471 26474 28
21180 26471 26475 28
21181 26476 26477 28
21182 26476 26478 28
21183 26476 26479 28
21184 26476 26480 28
21185 26481 26482 28
21186 26481 26483 28
21187 26481 26484 28
21188 26481 26485 28
21189 26486 26487 28
21190 26486 26488 28
21191 26486 26489 28
21192 26486 26490 28
21193 26491 26492 28
21194 26491 26493 28
21195 26491 26494 28
21196 26491 26495 28
21197 26496 26497 28
21198 26496 26498 28
21199 26496 26499 28
21200 26496 26500 28
21201 26501 26502 28
21202 26501 26503 28
21203 26501 26504 28
21204 26501 26505 28
21205 26506 26507 28
21206 26506 26508 28
21207 26506 26509 28
21208 26506 26510 28
21209 26511 26512 28
21210 26511 26513 28
21211 26511 26514 28
21212 26511 26515 28
21213 26516 26517 28
21214 26516 26518 28
21215 26516 26519 28
21216 26516 26520 28
21217 26521 26522 28
21218 26521 26523 28
21219 26521 26524 28
21220 26521 26525 28
21221 26526 26527 28
21222 26526 26528 28
21223 26526 26529 28
21224 26526 26530 28
21225 26531 26532 28
21226 26531 26533 28
21227 26531 26534 28
21228 26531 26535 28
21229 26536 26537 28
21230 26536 26538 28
21231 26536 26539 28
21232 26536 26540 28
21233 26541 26542 28
21234 26541 26543 28
21235 26541 26544 28
21236 26541 26545 28
21237 26546 26547 28
21238 26546 26548 28
21239 26546 26549 28
21240 26546 26550 28
21241 26551 26552 28
21242 26551 26553 28
21243 26551 26554 28
21244 26551 26555 28
21245 26556 26557 28
21246 26556 26558 28
21247 26556 26559 28
21248 26556 26560 28
21249 26561 26562 28
21250 26561 26563 28
21251 26561 26564 28
21252 26561 26565 28
21253 26566 26567 28
21254 26566 26568 28
21255 26566 26569 28
21256 26566 26570 28
21257 26571 26572 28
21258 26571 26573 28
21259 26571 26574 28
21260 26571 26575 28
21261 26576 26577 28
21262 26576 26578 28
21263 26576 26579 28
21264 26576 26580 28
21265 26581 26582 28
21266 26581 26583 28
21267 26581 26584 28
21268 26581 26585 28
21269 26586 26587 28
21270 26586 26588 28
21271 26586 26589 28
21272 26586 26590 28
21273 26591 26592 28
21274 26591 26593 28
21275 26591 26594 28
21276 26591 26595 28
21277 26596 26597 28
21278 26596 26598 28
21279 26596 26599 28
21280 26596 26600 28
21281 26601 26602 28
21282 26601 26603 28
21283 26601 26604 28
21284 26601 26605 28
21285 26606 26607 28
21286 26606 26608 28
21287 26606 26609 28
21288 26606 26610 28
21289 26611 26612 28
21290 26611 26613 28
21291 26611 26614 28
21292 26611 26615 28
21293 26616 26617 28
21294 26616 26618 28
21295 26616 26619 28
21296 26616 26620 28
21297 26621 26622 28
21298 26621 26623 28
21299 26621 26624 28
21300 26621 26625 28
21301 26626 26627 28
21302 26626 26628 28
21303 26626 26629 28
21304 26626 26630 28
21305 26631 26632 28
21306 26631 26633 28
21307 26631 26634 28
21308 26631 26635 28
21309 26636 26637 28
21310 26636 26638 28
21311 26636 26639 28
21312 26636 26640 28
21313 26641 26642 28
21314 26641 26643 28
21315 26641 26644 28
21316 26641 26645 28
21317 26646 26647 28
21318 26646 26648 28
21319 26646 26649 28
21320 26646 26650 28
21321 26651 26652 28
21322 26651 26653 28
21323 26651 26654 28
21324 26651 26655 28
21325 26656 26657 28
21326 26656 26658 28
21327 26656 26659 28
21328 26656 26660 28
21329 26661 26662 28
21330 26661 26663 28
21331 26661 26664 28
21332 26661 26665 28
21333 26666 26667 28
21334 26666 26668 28
21335 26666 26669 28
21336 26666 26670 28
21337 26671 26672 28
21338 26671 26673 28
21339 26671 26674 28
21340 26671 26675 28
21341 26676 26677 28
21342 26676 26678 28
21343 26676 26679 28
21344 26676 26680 28
21345 26681 26682 28
21346 26681 26683 28
21347 26681 26684 28
21348 26681 26685 28
21349 26686 26687 28
21350 26686 26688 28
21351 26686 26689 28
21352 26686 26690 28
21353 26691 26692 28
21354 26691 26693 28
21355 26691 26694 28
21356 26691 26695 28
21357 26696 26697 28
21358 26696 26698 28
21359 26696 26699 28
21360 26696 26700 28
21361 26701 26702 28
21362 26701 26703 28
21363 26701 26704 28
21364 26701 26705 28
21365 26706 26707 28
21366 26706 26708 28
21367 26706 26709 28
21368 26706 26710 28
21369 26711 26712 28
21370 26711 26713 28
21371 26711 26714 28
21372 26711 26715 28
21373 26716 26717 28
21374 26716 26718 28
21375 26716 26719 28
21376 26716 26720 28
21377 26721 26722 28
21378 26721 26723 28
21379 26721 26724 28
21380 26721 26725 28
21381 26726 26727 28
21382 26726 26728 28
21383 26726 26729 28
21384 26726 26730 28
21385 26731 26732 28
21386 26731 26733 28
21387 26731 26734 28
21388 26731 26735 28
21389 26736 26737 28
21390 26736 26738 28
21391 26736 26739 28
21392 26736 26740 28
21393 26741 26742 28
21394 26741 26743 28
21395 26741 26744 28
21396 26741 26745 28
21397 26746 26747 28
21398 26746 26748 28
21399 26746 26749 28
21400 26746 26750 28
21401 26751 26752 28
21402 26751 26753 28
21403 26751 26754 28
21404 26751 26755 28
21405 26756 26757 28
21406 26756 26758 28
21407 26756 26759 28
21408 26756 26760 28
21409 26761 26762 28
21410 26761 26763 28
21411 26761 26764 28
21412 26761 26765 28
21413 26766 26767 28
21414 26766 26768 28
21415 26766 26769 28
21416 26766 26770 28
21417 26771 26772 28
21418 26771 26773 28
21419 26771 26774 28
21420 26771 26775 28
21421 26776 26777 28
21422 26776 26778 28
21423 26776 26779 28
21424 26776 26780 28
21425 26781 26782 28
21426 26781 26783 28
21427 26781 26784 28
21428 26781 26785 28
21429 26786 26787 28
21430 26786 26788 28
21431 26786 26789 28
21432 26786 26790 28
21433 26791 26792 28
21434 26791 26793 28
21435 26791 26794 28
21436 26791 26795 28
21437 26796 26797 28
21438 26796 26798 28
21439 26796 26799 28
21440 26796 26800 28
21441 26801 26802 28
21442 26801 26803 28
21443 26801 26804 28
21444 26801 26805 28
21445 26806 26807 28
21446 26806 26808 28
21447 26806 26809 28
21448 26806 26810 28
21449 26811 26812 28
21450 26811 26813 28
21451 26811 26814 28
21452 26811 26815 28
21453 26816 26817 28
21454 26816 26818 28
21455 26816 26819 28
21456 26816 26820 28
21457 26821 26822 28
21458 26821 26823 28
21459 26821 26824 28
21460 26821 26825 28
21461 26826 26827 28
21462 26826 26828 28
21463 26826 26829 28
21464 26826 26830 28
21465 26831 26832 28
21466 26831 26833 28
21467 26831 26834 28
21468 26831 26835 28
21469 26836 26837 28
21470 26836 26838 28
21471 26836 26839 28
21472 26836 26840 28
21473 26841 26842 28
21474 26841 26843 28
21475 26841 26844 28
21476 26841 26845 28
21477 26846 26847 28
21478 26846 26848 28
21479 26846 26849 28
21480 26846 26850 28
21481 26851 26852 28
21482 26851 26853 28
21483 26851 26854 28
21484 26851 26855 28
21485 26856 26857 28
21486 26856 26858 28
21487 26856 26859 28
21488 26856 26860 28
21489 26861 26862 28
21490 26861 26863 28
21491 26861 26864 28
21492 26861 26865 28
21493 26866 26867 28
21494 26866 26868 28
21495 26866 26869 28
21496 26866 26870 28
21497 26871 26872 28
21498 26871 26873 28
21499 26871 26874 28
21500 26871 26875 28
21501 26876 26877 28
21502 26876 26878 28
21503 26876 26879 28
21504 26876 26880 28
21505 26881 26882 28
21506 26881 26883 28
21507 26881 26884 28
21508 26881 26885 28
21509 26886 26887 28
21510 26886 26888 28
21511 26886 26889 28
21512 26886 26890 28
21513 26891 26892 28
21514 26891 26893 28
21515 26891 26894 28
21516 26891 26895 28
21517 26896 26897 28
21518 26896 26898 28
21519 26896 26899 28
21520 26896 26900 28
21521 26901 26902 28
21522 26901 26903 28
21523 26901 26904 28
21524 26901 26905 28
21525 26906 26907 28
21526 26906 26908 28
21527 26906 26909 28
21528 26906 26910 28
21529 26911 26912 28
21530 26911 26913 28
21531 26911 26914 28
21532 26911 26915 28
21533 26916 26917 28
21534 26916 26918 28
21535 26916 26919 28
21536 26916 26920 28
21537 26921 26922 28
21538 26921 26923 28
21539 26921 26924 28
21540 26921 26925 28
21541 26926 26927 28
21542 26926 26928 28
21543 26926 26929 28
21544 26926 26930 28
21545 26931 26932 28
21546 26931 26933 28
21547 26931 26934 28
21548 26931 26935 28
21549 26936 26937 28
21550 26936 26938 28
21551 26936 26939 28
21552 26936 26940 28
21553 26941 26942 28
21554 26941 26943 28
21555 26941 26944 28
21556 26941 26945 28
21557 26946 26947 28
21558 26946 26948 28
21559 26946 26949 28
21560 26946 26950 28
21561 26951 26952 28
21562 26951 26953 28
21563 26951 26954 28
21564 26951 26955 28
21565 26956 26957 28
21566 26956 26958 28
21567 26956 26959 28
21568 26956 26960 28
21569 26961 26962 28
21570 26961 26963 28
21571 26961 26964 28
21572 26961 26965 28
21573 26966 26967 28
21574 26966 26968 28
21575 26966 26969 28
21576 26966 26970 28
21577 26971 26972 28
21578 26971 26973 28
21579 26971 26974 28
21580 26971 26975 28
21581 26976 26977 28
21582 26976 26978 28
21583 26976 26979 28
21584 26976 26980 28
21585 26981 26982 28
21586 26981 26983 28
21587 26981 26984 28
21588 26981 26985 28
21589 26986 26987 28
21590 26986 26988 28
21591 26986 26989 28
21592 26986 26990 28
21593 26991 26992 28
21594 26991 26993 28
21595 26991 26994 28
21596 26991 26995 28
21597 26996 26997 28
21598 26996 26998 28
21599 26996 26999 28
21600 26996 27000 28
21601 27001 27002 28
21602 27001 27003 28
21603 27001 27004 28
21604 27001 27005 28
21605 27006 27007 28
21606 27006 27008 28
21607 27006 27009 28
21608 27006 27010 28
21609 27011 27012 28
21610 27011 27013 28
21611 27011 27014 28
21612 27011 27015 28
21613 27016 27017 28
21614 27016 27018 28
21615 27016 27019 28
21616 27016 27020 28
21617 27021 27022 28
21618 27021 27023 28
21619 27021 27024 28
21620 27021 27025 28
21621 27026 27027 28
21622 27026 27028 28
21623 27026 27029 28
21624 27026 27030 28
21625 27031 27032 28
21626 27031 27033 28
21627 27031 27034 28
21628 27031 27035 28
21629 27036 27037 28
21630 27036 27038 28
21631 27036 27039 28
21632 27036 27040 28
21633 27041 27042 28
21634 27041 27043 28
21635 27041 27044 28
21636 27041 27045 28
21637 27046 27047 28
21638 27046 27048 28
21639 27046 27049 28
21640 27046 27050 28
21641 27051 27052 28
21642 27051 27053 28
21643 27051 27054 28
21644 27051 27055 28
21645 27056 27057 28
21646 27056 27058 28
21647 27056 27059 28
21648 27056 27060 28
21649 27061 27062 28
21650 27061 27063 28
21651 27061 27064 28
21652 27061 27065 28
21653 27066 27067 28
21654 27066 27068 28
21655 27066 27069 28
21656 27066 27070 28
21657 27071 27072 28
21658 27071 27073 28
21659 27071 27074 28
21660 27071 27075 28
21661 27076 27077 28
21662 27076 27078 28
21663 27076 27079 28
21664 27076 27080 28
21665 27081 27082 28
21666 27081 27083 28
21667 27081 27084 28
21668 27081 27085 28
21669 27086 27087 28
21670 27086 27088 28
21671 27086 27089 28
21672 27086 27090 28
21673 27091 27092 28
21674 27091 27093 28
21675 27091 27094 28
21676 27091 27095 28
21677 27096 27097 28
21678 27096 27098 28
21679 27096 27099 28
21680 27096 27100 28
21681 27101 27102 28
21682 27101 27103 28
21683 27101 27104 28
21684 27101 27105 28
21685 27106 27107 28
21686 27106 27108 28
21687 27106 27109 28
21688 27106 27110 28
21689 27111 27112 28
21690 27111 27113 28
21691 27111 27114 28
21692 27111 27115 28
21693 27116 27117 28
21694 27116 27118 28
21695 27116 27119 28
21696 27116 27120 28
21697 27121 27122 28
21698 27121 27123 28
21699 27121 27124 28
21700 27121 27125 28
21701 27126 27127 28
21702 27126 27128 28
21703 27126 27129 28
21704 27126 27130 28
21705 27131 27132 28
21706 27131 27133 28
21707 27131 27134 28
21708 27131 27135 28
21709 27136 27137 28
21710 27136 27138 28
21711 27136 27139 28
21712 27136 27140 28
21713 27141 27142 28
21714 27141 27143 28
21715 27141 27144 28
21716 27141 27145 28
21717 27146 27147 28
21718 27146 27148 28
21719 27146 27149 28
21720 27146 27150 28
21721 27151 27152 28
21722 27151 27153 28
21723 27151 27154 28
21724 27151 27155 28
21725 27156 27157 28
21726 27156 27158 28
21727 27156 27159 28
21728 27156 27160 28
21729 27161 27162 28
21730 27161 27163 28
21731 27161 27164 28
21732 27161 27165 28
21733 27166 27167 28
21734 27166 27168 28
21735 27166 27169 28
21736 27166 27170 28
21737 27171 27172 28
21738 27171 27173 28
21739 27171 27174 28
21740 27171 27175 28
21741 27176 27177 28
21742 27176 27178 28
21743 27176 27179 28
21744 27176 27180 28
21745 27181 27182 28
21746 27181 27183 28
21747 27181 27184 28
21748 27181 27185 28
21749 27186 27187 28
21750 27186 27188 28
21751 27186 27189 28
21752 27186 27190 28
21753 27191 27192 28
21754 27191 27193 28
21755 27191 27194 28
21756 27191 27195 28
21757 27196 27197 28
21758 27196 27198 28
21759 27196 27199 28
21760 27196 27200 28
21761 27201 27202 28
21762 27201 27203 28
21763 27201 27204 28
21764 27201 27205 28
21765 27206 27207 28
21766 27206 27208 28
21767 27206 27209 28
21768 27206 27210 28
21769 27211 27212 28
21770 27211 27213 28
21771 27211 27214 28
21772 27211 27215 28
21773 27216 27217 28
21774 27216 27218 28
21775 27216 27219 28
21776 27216 27220 28
21777 27221 27222 28
21778 27221 27223 28
21779 27221 27224 28
21780 27221 27225 28
21781 27226 27227 28
21782 27226 27228 28
21783 27226 27229 28
21784 27226 27230 28
21785 27231 27232 28
21786 27231 27233 28
21787 27231 27234 28
21788 27231 27235 28
21789 27236 27237 28
21790 27236 27238 28
21791 27236 27239 28
21792 27236 27240 28
21793 27241 27242 28
21794 27241 27243 28
21795 27241 27244 28
21796 27241 27245 28
21797 27246 27247 28
21798 27246 27248 28
21799 27246 27249 28
21800 27246 27250 28
21801 27251 27252 28
21802 27251 27253 28
21803 27251 27254 28
21804 27251 27255 28
21805 27256 27257 28
21806 27256 27258 28
21807 27256 27259 28
21808 27256 27260 28
21809 27261 27262 28
21810 27261 27263 28
21811 27261 27264 28
21812 27261 27265 28
21813 27266 27267 28
21814 27266 27268 28
21815 27266 27269 28
21816 27266 27270 28
21817 27271 27272 28
21818 27271 27273 28
21819 27271 27274 28
21820 27271 27275 28
21821 27276 27277 28
21822 27276 27278 28
21823 27276 27279 28
21824 27276 27280 28
21825 27281 27282 28
21826 27281 27283 28
21827 27281 27284 28
21828 27281 27285 28
21829 27286 27287 28
21830 27286 27288 28
21831 27286 27289 28
21832 27286 27290 28
21833 27291 27292 28
21834 27291 27293 28
21835 27291 27294 28
21836 27291 27295 28
21837 27296 27297 28
21838 27296 27298 28
21839 27296 27299 28
21840 27296 27300 28
21841 27301 27302 28
21842 27301 27303 28
21843 27301 27304 28
21844 27301 27305 28
21845 27306 27307 28
21846 27306 27308 28
21847 27306 27309 28
21848 27306 27310 28
21849 27311 27312 28
21850 27311 27313 28
21851 27311 27314 28
21852 27311 27315 28
21853 27316 27317 28
21854 27316 27318 28
21855 27316 27319 28
21856 27316 27320 28
21857 27321 27322 28
21858 27321 27323 28
21859 27321 27324 28
21860 27321 27325 28
21861 27326 27327 28
21862 27326 27328 28
21863 27326 27329 28
21864 27326 27330 28
21865 27331 27332 28
21866 27331 27333 28
21867 27331 27334 28
21868 27331 27335 28
21869 27336 27337 28
21870 27336 27338 28
21871 27336 27339 28
21872 27336 27340 28
21873 27341 27342 28
21874 27341 27343 28
21875 27341 27344 28
21876 27341 27345 28
21877 27346 27347 28
21878 27346 27348 28
21879 27346 27349 28
21880 27346 27350 28
21881 27351 27352 28
21882 27351 27353 28
21883 27351 27354 28
21884 27351 27355 28
21885 27356 27357 28
21886 27356 27358 28
21887 27356 27359 28
21888 27356 27360 28
21889 27361 27362 28
21890 27361 27363 28
21891 27361 27364 28
21892 27361 27365 28
21893 27366 27367 28
21894 27366 27368 28
21895 27366 27369 28
21896 27366 27370 28
21897 27371 27372 28
21898 27371 27373 28
21899 27371 27374 28
21900 27371 27375 28
21901 27376 27377 28
21902 27376 27378 28
21903 27376 27379 28
21904 27376 27380 28
21905 27381 27382 28
21906 27381 27383 28
21907 27381 27384 28
21908 27381 27385 28
21909 27386 27387 28
21910 27386 27388 28
21911 27386 27389 28
21912 27386 27390 28
21913 27391 27392 28
21914 27391 27393 28
21915 27391 27394 28
21916 27391 27395 28
21917 27396 27397 28
21918 27396 27398 28
21919 27396 27399 28
21920 27396 27400 28
21921 27401 27402 28
21922 27401 27403 28
21923 27401 27404 28
21924 27401 27405 28
21925 27406 27407 28
21926 27406 27408 28
21927 27406 27409 28
21928 27406 27410 28
21929 27411 27412 28
21930 27411 27413 28
21931 27411 27414 28
21932 27411 27415 28
21933 27416 27417 28
21934 27416 27418 28
21935 27416 27419 28
21936 27416 27420 28
21937 27421 27422 28
21938 27421 27423 28
21939 27421 27424 28
21940 27421 27425 28
21941 27426 27427 28
21942 27426 27428 28
21943 27426 27429 28
21944 27426 27430 28
21945 27431 27432 28
21946 27431 27433 28
21947 27431 27434 28
21948 27431 27435 28
21949 27436 27437 28
21950 27436 27438 28
21951 27436 27439 28
21952 27436 27440 28
21953 27441 27442 28
21954 27441 27443 28
21955 27441 27444 28
21956 27441 27445 28
21957 27446 27447 28
21958 27446 27448 28
21959 27446 27449 28
21960 27446 27450 28
21961 27451 27452 28
21962 27451 27453 28
21963 27451 27454 28
21964 27451 27455 28
21965 27456 27457 28
21966 27456 27458 28
21967 27456 27459 28
21968 27456 27460 28
21969 27461 27462 28
21970 27461 27463 28
21971 27461 27464 28
21972 27461 27465 28
21973 27466 27467 28
21974 27466 27468 28
21975 27466 27469 28
21976 27466 27470 28
21977 27471 27472 28
21978 27471 27473 28
21979 27471 27474 28
21980 27471 27475 28
21981 27476 27477 28
21982 27476 27478 28
21983 27476 27479 28
21984 27476 27480 28
21985 27481 27482 28
21986 27481 27483 28
21987 27481 27484 28
21988 27481 27485 28
21989 27486 27487 28
21990 27486 27488 28
21991 27486 27489 28
21992 27486 27490 28
21993 27491 27492 28
21994 27491 27493 28
21995 27491 27494 28
21996 27491 27495 28
21997 27496 27497 28
21998 27496 27498 28
21999 27496 27499 28
22000 27496 27500 28
22001 27501 27502 28
22002 27501 27503 28
22003 27501 27504 28
22004 27501 27505 28
22005 27506 27507 28
22006 27506 27508 28
22007 27506 27509 28
22008 27506 27510 28
22009 27511 27512 28
22010 27511 27513 28
22011 27511 27514 28
22012 27511 27515 28
22013 27516 27517 28
22014 27516 27518 28
22015 27516 27519 28
22016 27516 27520 28
22017 27521 27522 28
22018 27521 27523 28
22019 27521 27524 28
22020 27521 27525 28
22021 27526 27527 28
22022 27526 27528 28
22023 27526 27529 28
22024 27526 27530 28
22025 27531 27532 28
22026 27531 27533 28
22027 27531 27534 28
22028 27531 27535 28
22029 27536 27537 28
22030 27536 27538 28
22031 27536 27539 28
22032 27536 27540 28
22033 27541 27542 28
22034 27541 27543 28
22035 27541 27544 28
22036 27541 27545 28
22037 27546 27547 28
22038 27546 27548 28
22039 27546 27549 28
22040 27546 27550 28
22041 27551 27552 28
22042 27551 27553 28
22043 27551 27554 28
22044 27551 27555 28
22045 27556 27557 28
22046 27556 27558 28
22047 27556 27559 28
22048 27556 27560 28
22049 27561 27562 28
22050 27561 27563 28
22051 27561 27564 28
22052 27561 27565 28
22053 27566 27567 28
22054 27566 27568 28
22055 27566 27569 28
22056 27566 27570 28
22057 27571 27572 28
22058 27571 27573 28
22059 27571 27574 28
22060 27571 27575 28
22061 27576 27577 28
22062 27576 27578 28
22063 27576 27579 28
22064 27576 27580 28
22065 27581 27582 28
22066 27581 27583 28
22067 27581 27584 28
22068 27581 27585 28
22069 27586 27587 28
22070 27586 27588 28
22071 27586 27589 28
22072 27586 27590 28
22073 27591 27592 28
22074 27591 27593 28
22075 27591 27594 28
22076 27591 27595 28
22077 27596 27597 28
22078 27596 27598 28
22079 27596 27599 28
22080 27596 27600 28
22081 27601 27602 28
22082 27601 27603 28
22083 27601 27604 28
22084 27601 27605 28
22085 27606 27607 28
22086 27606 27608 28
22087 27606 27609 28
22088 27606 27610 28
22089 27611 27612 28
22090 27611 27613 28
22091 27611 27614 28
22092 27611 27615 28
22093 27616 27617 28
22094 27616 27618 28
22095 27616 27619 28
22096 27616 27620 28
22097 27621 27622 28
22098 27621 27623 28
22099 27621 27624 28
22100 27621 27625 28
22101 27626 27627 28
22102 27626 27628 28
22103 27626 27629 28
22104 27626 27630 28
22105 27631 27632 28
22106 27631 27633 28
22107 27631 27634 28
22108 27631 27635 28
22109 27636 27637 28
22110 27636 27638 28
22111 27636 27639 28
22112 27636 27640 28
22113 27641 27642 28
22114 27641 27643 28
22115 27641 27644 28
22116 27641 27645 28
22117 27646 27647 28
22118 27646 27648 28
22119 27646 27649 28
22120 27646 27650 28
22121 27651 27652 28
22122 27651 27653 28
22123 27651 27654 28
22124 27651 27655 28
22125 27656 27657 28
22126 27656 27658 28
22127 27656 27659 28
22128 27656 27660 28
22129 27661 27662 28
22130 27661 27663 28
22131 27661 27664 28
22132 27661 27665 28
22133 27666 27667 28
22134 27666 27668 28
22135 27666 27669 28
22136 27666 27670 28
22137 27671 27672 28
22138 27671 27673 28
22139 27671 27674 28
22140 27671 27675 28
22141 27676 27677 28
22142 27676 27678 28
22143 27676 27679 28
22144 27676 27680 28
22145 27681 27682 28
22146 27681 27683 28
22147 27681 27684 28
22148 27681 27685 28
22149 27686 27687 28
22150 27686 27688 28
22151 27686 27689 28
22152 27686 27690 28
22153 27691 27692 28
22154 27691 27693 28
22155 27691 27694 28
22156 27691 27695 28
22157 27696 27697 28
22158 27696 27698 28
22159 27696 27699 28
22160 27696 27700 28
22161 27701 27702 28
22162 27701 27703 28
22163 27701 27704 28
22164 27701 27705 28
22165 27706 27707 28
22166 27706 27708 28
22167 27706 27709 28
22168 27706 27710 28
22169 27711 27712 28
22170 27711 27713 28
22171 27711 27714 28
22172 27711 27715 28
22173 27716 27717 28
22174 27716 27718 28
22175 27716 27719 28
22176 27716 27720 28
22177 27721 27722 28
22178 27721 27723 28
22179 27721 27724 28
22180 27721 27725 28
22181 27726 27727 28
22182 27726 27728 28
22183 27726 27729 28
22184 27726 27730 28
22185 27731 27732 28
22186 27731 27733 28
22187 27731 27734 28
22188 27731 27735 28
22189 27736 27737 28
22190 27736 27738 28
22191 27736 27739 28
22192 27736 27740 28
22193 27741 27742 28
22194 27741 27743 28
22195 27741 27744 28
22196 27741 27745 28
22197 27746 27747 28
22198 27746 27748 28
22199 27746 27749 28
22200 27746 27750 28
22201 27751 27752 28
22202 27751 27753 28
22203 27751 27754 28
22204 27751 27755 28
22205 27756 27757 28
22206 27756 27758 28
22207 27756 27759 28
22208 27756 27760 28
22209 27761 27762 28
22210 27761 27763 28
22211 27761 27764 28
22212 27761 27765 28
22213 27766 27767 28
22214 27766 27768 28
22215 27766 27769 28
22216 27766 27770 28
22217 27771 27772 28
22218 27771 27773 28
22219 27771 27774 28
22220 27771 27775 28
22221 27776 27777 28
22222 27776 27778 28
22223 27776 27779 28
22224 27776 27780 28
22225 27781 27782 28
22226 27781 27783 28
22227 27781 27784 28
22228 27781 27785 28
22229 27786 27787 28
22230 27786 27788 28
22231 27786 27789 28
22232 27786 27790 28
22233 27791 27792 28
22234 27791 27793 28
22235 27791 27794 28
22236 27791 27795 28
22237 27796 27797 28
22238 27796 27798 28
22239 27796 27799 28
22240 27796 27800 28
22241 27801 27802 28
22242 27801 27803 28
22243 27801 27804 28
22244 27801 27805 28
22245 27806 27807 28
22246 27806 27808 28
22247 27806 27809 28
22248 27806 27810 28
22249 27811 27812 28
22250 27811 27813 28
22251 27811 27814 28
22252 27811 27815 28
22253 27816 27817 28
22254 27816 27818 28
22255 27816 27819 28
22256 27816 27820 28
22257 27821 27822 28
22258 27821 27823 28
22259 27821 27824 28
22260 27821 27825 28
22261 27826 27827 28
22262 27826 27828 28
22263 27826 27829 28
22264 27826 27830 28
22265 27831 27832 28
22266 27831 27833 28
22267 27831 27834 28
22268 27831 27835 28
22269 27836 27837 28
22270 27836 27838 28
22271 27836 27839 28
22272 27836 27840 28
22273 27841 27842 28
22274 27841 27843 28
22275 27841 27844 28
22276 27841 27845 28
22277 27846 27847 28
22278 27846 27848 28
22279 27846 27849 28
22280 27846 27850 28
22281 27851 27852 28
22282 27851 27853 28
22283 27851 27854 28
22284 27851 27855 28
22285 27856 27857 28
22286 27856 27858 28
22287 27856 27859 28
22288 27856 27860 28
22289 27861 27862 28
22290 27861 27863 28
22291 27861 27864 28
22292 27861 27865 28
22293 27866 27867 28
22294 27866 27868 28
22295 27866 27869 28
22296 27866 27870 28
22297 27871 27872 28
22298 27871 27873 28
22299 27871 27874 28
22300 27871 27875 28
22301 27876 27877 28
22302 27876 27878 28
22303 27876 27879 28
22304 27876 27880 28
22305 27881 27882 28
22306 27881 27883 28
22307 27881 27884 28
22308 27881 27885 28
22309 27886 27887 28
22310 27886 27888 28
22311 27886 27889 28
22312 27886 27890 28
22313 27891 27892 28
22314 27891 27893 28
22315 27891 27894 28
22316 27891 27895 28
22317 27896 27897 28
22318 27896 27898 28
22319 27896 27899 28
22320 27896 27900 28
22321 27901 27902 28
22322 27901 27903 28
22323 27901 27904 28
22324 27901 27905 28
22325 27906 27907 28
22326 27906 27908 28
22327 27906 27909 28
22328 27906 27910 28
22329 27911 27912 28
22330 27911 27913 28
22331 27911 27914 28
22332 27911 27915 28
22333 27916 27917 28
22334 27916 27918 28
22335 27916 27919 28
22336 27916 27920 28
22337 27921 27922 28
22338 27921 27923 28
22339 27921 27924 28
22340 27921 27925 28
22341 27926 27927 28
22342 27926 27928 28
22343 27926 27929 28
22344 27926 27930 28
22345 27931 27932 28
22346 27931 27933 28
22347 27931 27934 28
22348 27931 27935 28
22349 27936 27937 28
22350 27936 27938 28
22351 27936 27939 28
22352 27936 27940 28
22353 27941 27942 28
22354 27941 27943 28
22355 27941 27944 28
22356 27941 27945 28
22357 27946 27947 28
22358 27946 27948 28
22359 27946 27949 28
22360 27946 27950 28
22361 27951 27952 28
22362 27951 27953 28
22363 27951 27954 28
22364 27951 27955 28
22365 27956 27957 28
22366 27956 27958 28
22367 27956 27959 28
22368 27956 27960 28
22369 27961 27962 28
22370 27961 27963 28
22371 27961 27964 28
22372 27961 27965 28
22373 27966 27967 28
22374 27966 27968 28
22375 27966 27969 28
22376 27966 27970 28
22377 27971 27972 28
22378 27971 27973 28
22379 27971 27974 28
22380 27971 27975 28
22381 27976 27977 28
22382 27976 27978 28
22383 27976 27979 28
22384 27976 27980 28
22385 27981 27982 28
22386 27981 27983 28
22387 27981 27984 28
22388 27981 27985 28
22389 27986 27987 28
22390 27986 27988 28
22391 27986 27989 28
22392 27986 27990 28
22393 27991 27992 28
22394 27991 27993 28
22395 27991 27994 28
22396 27991 27995 28
22397 27996 27997 28
22398 27996 27998 28
22399 27996 27999 28
22400 27996 28000 28
22401 28001 28002 28
22402 28001 28003 28
22403 28001 28004 28
22404 28001 28005 28
22405 28006 28007 28
22406 28006 28008 28
22407 28006 28009 28
22408 28006 28010 28
22409 28011 28012 28
22410 28011 28013 28
22411 28011 28014 28
22412 28011 28015 28
22413 28016 28017 28
22414 28016 28018 28
22415 28016 28019 28
22416 28016 28020 28
22417 28021 28022 28
22418 28021 28023 28
22419 28021 28024 28
22420 28021 28025 28
22421 28026 28027 28
22422 28026 28028 28
22423 28026 28029 28
22424 28026 28030 28
22425 28031 28032 28
22426 28031 28033 28
22427 28031 28034 28
22428 28031 28035 28
22429 28036 28037 28
22430 28036 28038 28
22431 28036 28039 28
22432 28036 28040 28
22433 28041 28042 28
22434 28041 28043 28
22435 28041 28044 28
22436 28041 28045 28
22437 28046 28047 28
22438 28046 28048 28
22439 28046 28049 28
22440 28046 28050 28
22441 28051 28052 28
22442 28051 28053 28
22443 28051 28054 28
22444 28051 28055 28
22445 28056 28057 28
22446 28056 28058 28
22447 28056 28059 28
22448 28056 28060 28
22449 28061 28062 28
22450 28061 28063 28
22451 28061 28064 28
22452 28061 28065 28
22453 28066 28067 28
22454 28066 28068 28
22455 28066 28069 28
22456 28066 28070 28
22457 28071 28072 28
22458 28071 28073 28
22459 28071 28074 28
22460 28071 28075 28
22461 28076 28077 28
22462 28076 28078 28
22463 28076 28079 28
22464 28076 28080 28
22465 28081 28082 28
22466 28081 28083 28
22467 28081 28084 28
22468 28081 28085 28
22469 28086 28087 28
22470 28086 28088 28
22471 28086 28089 28
22472 28086 28090 28
22473 28091 28092 28
22474 28091 28093 28
22475 28091 28094 28
22476 28091 28095 28
22477 28096 28097 28
22478 28096 28098 28
22479 28096 28099 28
22480 28096 28100 28
22481 28101 28102 28
22482 28101 28103 28
22483 28101 28104 28
22484 28101 28105 28
22485 28106 28107 28
22486 28106 28108 28
22487 28106 28109 28
22488 28106 28110 28
22489 28111 28112 28
22490 28111 28113 28
22491 28111 28114 28
22492 28111 28115 28
22493 28116 28117 28
22494 28116 28118 28
22495 28116 28119 28
22496 28116 28120 28
22497 28121 28122 28
22498 28121 28123 28
22499 28121 28124 28
22500 28121 28125 28
22501 28126 28127 28
22502 28126 28128 28
22503 28126 28129 28
22504 28126 28130 28
22505 28131 28132 28
22506 28131 28133 28
22507 28131 28134 28
22508 28131 28135 28
22509 28136 28137 28
22510 28136 28138 28
22511 28136 28139 28
22512 28136 28140 28
22513 28141 28142 28
22514 28141 28143 28
22515 28141 28144 28
22516 28141 28145 28
22517 28146 28147 28
22518 28146 28148 28
22519 28146 28149 28
22520 28146 28150 28
22521 28151 28152 28
22522 28151 28153 28
22523 28151 28154 28
22524 28151 28155 28
22525 28156 28157 28
22526 28156 28158 28
22527 28156 28159 28
22528 28156 28160 28
22529 28161 28162 28
22530 28161 28163 28
22531 28161 28164 28
22532 28161 28165 28
22533 28166 28167 28
22534 28166 28168 28
22535 28166 28169 28
22536 28166 28170 28
22537 28171 28172 28
22538 28171 28173 28
22539 28171 28174 28
22540 28171 28175 28
22541 28176 28177 28
22542 28176 28178 28
22543 28176 28179 28
22544 28176 28180 28
22545 28181 28182 28
22546 28181 28183 28
22547 28181 28184 28
22548 28181 28185 28
22549 28186 28187 28
22550 28186 28188 28
22551 28186 28189 28
22552 28186 28190 28
22553 28191 28192 28
22554 28191 28193 28
22555 28191 28194 28
22556 28191 28195 28
22557 28196 28197 28
22558 28196 28198 28
22559 28196 28199 28
22560 28196 28200 28
22561 28201 28202 28
22562 28201 28203 28
22563 28201 28204 28
22564 28201 28205 28
22565 28206 28207 28
22566 28206 28208 28
22567 28206 28209 28
22568 28206 28210 28
22569 28211 28212 28
22570 28211 28213 28
22571 28211 28214 28
22572 28211 28215 28
22573 28216 28217 28
22574 28216 28218 28
22575 28216 28219 28
22576 28216 28220 28
22577 28221 28222 28
22578 28221 28223 28
22579 28221 28224 28
22580 28221 28225 28
22581 28226 28227 28
22582 28226 28228 28
22583 28226 28229 28
22584 28226 28230 28
22585 28231 28232 28
22586 28231 28233 28
22587 28231 28234 28
22588 28231 28235 28
22589 28236 28237 28
22590 28236 28238 28
22591 28236 28239 28
22592 28236 28240 28
22593 28241 28242 28
22594 28241 28243 28
22595 28241 28244 28
22596 28241 28245 28
22597 28246 28247 28
22598 28246 28248 28
22599 28246 28249 28
22600 28246 28250 28
22601 28251 28252 28
22602 28251 28253 28
22603 28251 28254 28
22604 28251 28255 28
22605 28256 28257 28
22606 28256 28258 28
22607 28256 28259 28
22608 28256 28260 28
22609 28261 28262 28
22610 28261 28263 28
22611 28261 28264 28
22612 28261 28265 28
22613 28266 28267 28
22614 28266 28268 28
22615 28266 28269 28
22616 28266 28270 28
22617 28271 28272 28
22618 28271 28273 28
22619 28271 28274 28
22620 28271 28275 28
22621 28276 28277 28
22622 28276 28278 28
22623 28276 28279 28
22624 28276 28280 28
22625 28281 28282 28
22626 28281 28283 28
22627 28281 28284 28
22628 28281 28285 28
22629 28286 28287 28
22630 28286 28288 28
22631 28286 28289 28
22632 28286 28290 28
22633 28291 28292 28
22634 28291 28293 28
22635 28291 28294 28
22636 28291 28295 28
22637 28296 28297 28
22638 28296 28298 28
22639 28296 28299 28
22640 28296 28300 28
22641 28301 28302 28
22642 28301 28303 28
22643 28301 28304 28
22644 28301 28305 28
22645 28306 28307 28
22646 28306 28308 28
22647 28306 28309 28
22648 28306 28310 28
22649 28311 28312 28
22650 28311 28313 28
22651 28311 28314 28
22652 28311 28315 28
22653 28316 28317 28
22654 28316 28318 28
22655 28316 28319 28
22656 28316 28320 28
22657 28321 28322 28
22658 28321 28323 28
22659 28321 28324 28
22660 28321 28325 28
22661 28326 28327 28
22662 28326 28328 28
22663 28326 28329 28
22664 28326 28330 28
22665 28331 28332 28
22666 28331 28333 28
22667 28331 28334 28
22668 28331 28335 28
22669 28336 28337 28
22670 28336 28338 28
22671 28336 28339 28
22672 28336 28340 28
22673 28341 28342 28
22674 28341 28343 28
22675 28341 28344 28
22676 28341 28345 28
22677 28346 28347 28
22678 28346 28348 28
22679 28346 28349 28
22680 28346 28350 28
22681 28351 28352 28
22682 28351 28353 28
22683 28351 28354 28
22684 28351 28355 28
22685 28356 28357 28
22686 28356 28358 28
22687 28356 28359 28
22688 28356 28360 28
22689 28361 28362 28
22690 28361 28363 28
22691 28361 28364 28
22692 28361 28365 28
22693 28366 28367 28
22694 28366 28368 28
22695 28366 28369 28
22696 28366 28370 28
22697 28371 28372 28
22698 28371 28373 28
22699 28371 28374 28
22700 28371 28375 28
22701 28376 28377 28
22702 28376 28378 28
22703 28376 28379 28
22704 28376 28380 28
22705 28381 28382 28
22706 28381 28383 28
22707 28381 28384 28
22708 28381 28385 28
22709 28386 28387 28
22710 28386 28388 28
22711 28386 28389 28
22712 28386 28390 28
22713 28391 28392 28
22714 28391 28393 28
22715 28391 28394 28
22716 28391 28395 28
22717 28396 28397 28
22718 28396 28398 28
22719 28396 28399 28
22720 28396 28400 28
22721 28401 28402 28
22722 28401 28403 28
22723 28401 28404 28
22724 28401 28405 28
22725 28406 28407 28
22726 28406 28408 28
22727 28406 28409 28
22728 28406 28410 28
22729 28411 28412 28
22730 28411 28413 28
22731 28411 28414 28
22732 28411 28415 28
22733 28416 28417 28
22734 28416 28418 28
22735 28416 28419 28
22736 28416 28420 28
22737 28421 28422 28
22738 28421 28423 28
22739 28421 28424 28
22740 28421 28425 28
22741 28426 28427 28
22742 28426 28428 28
22743 28426 28429 28
22744 28426 28430 28
22745 28431 28432 28
22746 28431 28433 28
22747 28431 28434 28
22748 28431 28435 28
22749 28436 28437 28
22750 28436 28438 28
22751 28436 28439 28
22752 28436 28440 28
22753 28441 28442 28
22754 28441 28443 28
22755 28441 28444 28
22756 28441 28445 28
22757 28446 28447 28
22758 28446 28448 28
22759 28446 28449 28
22760 28446 28450 28
22761 28451 28452 28
22762 28451 28453 28
22763 28451 28454 28
22764 28451 28455 28
22765 28456 28457 28
22766 28456 28458 28
22767 28456 28459 28
22768 28456 28460 28
22769 28461 28462 28
22770 28461 28463 28
22771 28461 28464 28
22772 28461 28465 28
22773 28466 28467 28
22774 28466 28468 28
22775 28466 28469 28
22776 28466 28470 28
22777 28471 28472 28
22778 28471 28473 28
22779 28471 28474 28
22780 28471 28475 28
22781 28476 28477 28
22782 28476 28478 28
22783 28476 28479 28
22784 28476 28480 28
22785 28481 28482 28
22786 28481 28483 28
22787 28481 28484 28
22788 28481 28485 28
22789 28486 28487 28
22790 28486 28488 28
22791 28486 28489 28
22792 28486 28490 28
22793 28491 28492 28
22794 28491 28493 28
22795 28491 28494 28
22796 28491 28495 28
22797 28496 28497 28
22798 28496 28498 28
22799 28496 28499 28
22800 28496 28500 28
22801 28501 28502 28
22802 28501 28503 28
22803 28501 28504 28
22804 28501 28505 28
22805 28506 28507 28
22806 28506 28508 28
22807 28506 28509 28
22808 28506 28510 28
22809 28511 28512 28
22810 28511 28513 28
22811 28511 28514 28
22812 28511 28515 28
22813 28516 28517 28
22814 28516 28518 28
22815 28516 28519 28
22816 28516 28520 28
22817 28521 28522 28
22818 28521 28523 28
22819 28521 28524 28
22820 28521 28525 28
22821 28526 28527 28
22822 28526 28528 28
22823 28526 28529 28
22824 28526 28530 28
22825 28531 28532 28
22826 28531 28533 28
22827 28531 28534 28
22828 28531 28535 28
22829 28536 28537 28
22830 28536 28538 28
22831 28536 28539 28
22832 28536 28540 28
22833 28541 28542 28
22834 28541 28543 28
22835 28541 28544 28
22836 28541 28545 28
22837 28546 28547 28
22838 28546 28548 28
22839 28546 28549 28
22840 28546 28550 28
22841 28551 28552 28
22842 28551 28553 28
22843 28551 28554 28
22844 28551 28555 28
22845 28556 28557 28
22846 28556 28558 28
22847 28556 28559 28
22848 28556 28560 28
22849 28561 28562 28
22850 28561 28563 28
22851 28561 28564 28
22852 28561 28565 28
22853 28566 28567 28
22854 28566 28568 28
22855 28566 28569 28
22856 28566 28570 28
22857 28571 28572 28
22858 28571 28573 28
22859 28571 28574 28
22860 28571 28575 28
22861 28576 28577 28
22862 28576 28578 28
22863 28576 28579 28
22864 28576 28580 28
22865 28581 28582 28
22866 28581 28583 28
22867 28581 28584 28
22868 28581 28585 28
22869 28586 28587 28
22870 28586 28588 28
22871 28586 28589 28
22872 28586 28590 28
22873 28591 28592 28
22874 28591 28593 28
22875 28591 28594 28
22876 28591 28595 28
22877 28596 28597 28
22878 28596 28598 28
22879 28596 28599 28
22880 28596 28600 28
22881 28601 28602 28
22882 28601 28603 28
22883 28601 28604 28
22884 28601 28605 28
22885 28606 28607 28
22886 28606 28608 28
22887 28606 28609 28
22888 28606 28610 28
22889 28611 28612 28
22890 28611 28613 28
22891 28611 28614 28
22892 28611 28615 28
22893 28616 28617 28
22894 28616 28618 28
22895 28616 28619 28
22896 28616 28620 28
22897 28621 28622 28
22898 28621 28623 28
22899 28621 28624 28
22900 28621 28625 28
22901 28626 28627 28
22902 28626 28628 28
22903 28626 28629 28
22904 28626 28630 28
22905 28631 28632 28
22906 28631 28633 28
22907 28631 28634 28
22908 28631 28635 28
22909 28636 28637 28
22910 28636 28638 28
22911 28636 28639 28
22912 28636 28640 28
22913 28641 28642 28
22914 28641 28643 28
22915 28641 28644 28
22916 28641 28645 28
22917 28646 28647 28
22918 28646 28648 28
22919 28646 28649 28
22920 28646 28650 28
22921 28651 28652 28
22922 28651 28653 28
22923 28651 28654 28
22924 28651 28655 28
22925 28656 28657 28
22926 28656 28658 28
22927 28656 28659 28
22928 28656 28660 28
22929 28661 28662 28
22930 28661 28663 28
22931 28661 28664 28
22932 28661 28665 28
22933 28666 28667 28
22934 28666 28668 28
22935 28666 28669 28
22936 28666 28670 28
22937 28671 28672 28
22938 28671 28673 28
22939 28671 28674 28
22940 28671 28675 28
22941 28676 28677 28
22942 28676 28678 28
22943 28676 28679 28
22944 28676 28680 28
22945 28681 28682 28
22946 28681 28683 28
22947 28681 28684 28
22948 28681 28685 28
22949 28686 28687 28
22950 28686 28688 28
22951 28686 28689 28
22952 28686 28690 28
22953 28691 28692 28
22954 28691 28693 28
22955 28691 28694 28
22956 28691 28695 28
22957 28696 28697 28
22958 28696 28698 28
22959 28696 28699 28
22960 28696 28700 28
22961 28701 28702 28
22962 28701 28703 28
22963 28701 28704 28
22964 28701 28705 28
22965 28706 28707 28
22966 28706 28708 28
22967 28706 28709 28
22968 28706 28710 28
22969 28711 28712 28
22970 28711 28713 28
22971 28711 28714 28
22972 28711 28715 28
22973 28716 28717 28
22974 28716 28718 28
22975 28716 28719 28
22976 28716 28720 28
22977 28721 28722 28
22978 28721 28723 28
22979 28721 28724 28
22980 28721 28725 28
22981 28726 28727 28
22982 28726 28728 28
22983 28726 28729 28
22984 28726 28730 28
22985 28731 28732 28
22986 28731 28733 28
22987 28731 28734 28
22988 28731 28735 28
22989 28736 28737 28
22990 28736 28738 28
22991 28736 28739 28
22992 28736 28740 28
22993 28741 28742 28
22994 28741 28743 28
22995 28741 28744 28
22996 28741 28745 28
22997 28746 28747 28
22998 28746 28748 28
22999 28746 28749 28
23000 28746 28750 28
23001 28751 28752 28
23002 28751 28753 28
23003 28751 28754 28
23004 28751 28755 28
23005 28756 28757 28
23006 28756 28758 28
23007 28756 28759 28
23008 28756 28760 28
23009 28761 28762 28
23010 28761 28763 28
23011 28761 28764 28
23012 28761 28765 28
23013 28766 28767 28
23014 28766 28768 28
23015 28766 28769 28
23016 28766 28770 28
23017 28771 28772 28
23018 28771 28773 28
23019 28771 28774 28
23020 28771 28775 28
23021 28776 28777 28
23022 28776 28778 28
23023 28776 28779 28
23024 28776 28780 28
23025 28781 28782 28
23026 28781 28783 28
23027 28781 28784 28
23028 28781 28785 28
23029 28786 28787 28
23030 28786 28788 28
23031 28786 28789 28
23032 28786 28790 28
23033 28791 28792 28
23034 28791 28793 28
23035 28791 28794 28
23036 28791 28795 28
23037 28796 28797 28
23038 28796 28798 28
23039 28796 28799 28
23040 28796 28800 28
23041 28801 28802 28
23042 28801 28803 28
23043 28801 28804 28
23044 28801 28805 28
23045 28806 28807 28
23046 28806 28808 28
23047 28806 28809 28
23048 28806 28810 28
23049 28811 28812 28
23050 28811 28813 28
23051 28811 28814 28
23052 28811 28815 28
23053 28816 28817 28
23054 28816 28818 28
23055 28816 28819 28
23056 28816 28820 28
23057 28821 28822 28
23058 28821 28823 28
23059 28821 28824 28
23060 28821 28825 28
23061 28826 28827 28
23062 28826 28828 28
23063 28826 28829 28
23064 28826 28830 28
23065 28831 28832 28
23066 28831 28833 28
23067 28831 28834 28
23068 28831 28835 28
23069 28836 28837 28
23070 28836 28838 28
23071 28836 28839 28
23072 28836 28840 28
23073 28841 28842 28
23074 28841 28843 28
23075 28841 28844 28
23076 28841 28845 28
23077 28846 28847 28
23078 28846 28848 28
23079 28846 28849 28
23080 28846 28850 28
23081 28851 28852 28
23082 28851 28853 28
23083 28851 28854 28
23084 28851 28855 28
23085 28856 28857 28
23086 28856 28858 28
23087 28856 28859 28
23088 28856 28860 28
23089 28861 28862 28
23090 28861 28863 28
23091 28861 28864 28
23092 28861 28865 28
23093 28866 28867 28
23094 28866 28868 28
23095 28866 28869 28
23096 28866 28870 28
23097 28871 28872 28
23098 28871 28873 28
23099 28871 28874 28
23100 28871 28875 28
23101 28876 28877 28
23102 28876 28878 28
23103 28876 28879 28
23104 28876 28880 28
23105 28881 28882 28
23106 28881 28883 28
23107 28881 28884 28
23108 28881 28885 28
23109 28886 28887 28
23110 28886 28888 28
23111 28886 28889 28
23112 28886 28890 28
23113 28891 28892 28
23114 28891 28893 28
23115 28891 28894 28
23116 28891 28895 28
23117 28896 28897 28
23118 28896 28898 28
23119 28896 28899 28
23120 28896 28900 28
23121 28901 28902 28
23122 28901 28903 28
23123 28901 28904 28
23124 28901 28905 28
23125 28906 28907 28
23126 28906 28908 28
23127 28906 28909 28
23128 28906 28910 28
23129 28911 28912 28
23130 28911 28913 28
23131 28911 28914 28
23132 28911 28915 28
23133 28916 28917 28
23134 28916 28918 28
23135 28916 28919 28
23136 28916 28920 28
23137 28921 28922 28
23138 28921 28923 28
23139 28921 28924 28
23140 28921 28925 28
23141 28926 28927 28
23142 28926 28928 28
23143 28926 28929 28
23144 28926 28930 28
23145 28931 28932 28
23146 28931 28933 28
23147 28931 28934 28
23148 28931 28935 28
23149 28936 28937 28
23150 28936 28938 28
23151 28936 28939 28
23152 28936 28940 28
23153 28941 28942 28
23154 28941 28943 28
23155 28941 28944 28
23156 28941 28945 28
23157 28946 28947 28
23158 28946 28948 28
23159 28946 28949 28
23160 28946 28950 28
23161 28951 28952 28
23162 28951 28953 28
23163 28951 28954 28
23164 28951 28955 28
23165 28956 28957 28
23166 28956 28958 28
23167 28956 28959 28
23168 28956 28960 28
23169 28961 28962 28
23170 28961 28963 28
23171 28961 28964 28
23172 28961 28965 28
23173 28966 28967 28
23174 28966 28968 28
23175 28966 28969 28
23176 28966 28970 28
23177 28971 28972 28
23178 28971 28973 28
23179 28971 28974 28
23180 28971 28975 28
23181 28976 28977 28
23182 28976 28978 28
23183 28976 28979 28
23184 28976 28980 28
23185 28981 28982 28
23186 28981 28983 28
23187 28981 28984 28
23188 28981 28985 28
23189 28986 28987 28
23190 28986 28988 28
23191 28986 28989 28
23192 28986 28990 28
23193 28991 28992 28
23194 28991 28993 28
23195 28991 28994 28
23196 28991 28995 28
23197 28996 28997 28
23198 28996 28998 28
23199 28996 28999 28
23200 28996 29000 28
23201 29001 29002 28
23202 29001 29003 28
23203 29001 29004 28
23204 29001 29005 28
23205 29006 29007 28
23206 29006 29008 28
23207 29006 29009 28
23208 29006 29010 28
23209 29011 29012 28
23210 29011 29013 28
23211 29011 29014 28
23212 29011 29015 28
23213 29016 29017 28
23214 29016 29018 28
23215 29016 29019 28
23216 29016 29020 28
23217 29021 29022 28
23218 29021 29023 28
23219 29021 29024 28
23220 29021 29025 28
23221 29026 29027 28
23222 29026 29028 28
23223 29026 29029 28
23224 29026 29030 28
23225 29031 29032 28
23226 29031 29033 28
23227 29031 29034 28
23228 29031 29035 28
23229 29036 29037 28
23230 29036 29038 28
23231 29036 29039 28
23232 29036 29040 28
23233 29041 29042 28
23234 29041 29043 28
23235 29041 29044 28
23236 29041 29045 28
23237 29046 29047 28
23238 29046 29048 28
23239 29046 29049 28
23240 29046 29050 28
23241 29051 29052 28
23242 29051 29053 28
23243 29051 29054 28
23244 29051 29055 28
23245 29056 29057 28
23246 29056 29058 28
23247 29056 29059 28
23248 29056 29060 28
23249 29061 29062 28
23250 29061 29063 28
23251 29061 29064 28
23252 29061 29065 28
23253 29066 29067 28
23254 29066 29068 28
23255 29066 29069 28
23256 29066 29070 28
23257 29071 29072 28
23258 29071 29073 28
23259 29071 29074 28
23260 29071 29075 28
23261 29076 29077 28
23262 29076 29078 28
23263 29076 29079 28
23264 29076 29080 28
23265 29081 29082 28
23266 29081 29083 28
23267 29081 29084 28
23268 29081 29085 28
23269 29086 29087 28
23270 29086 29088 28
23271 29086 29089 28
23272 29086 29090 28
23273 29091 29092 28
23274 29091 29093 28
23275 29091 29094 28
23276 29091 29095 28
23277 29096 29097 28
23278 29096 29098 28
23279 29096 29099 28
23280 29096 29100 28
23281 29101 29102 28
23282 29101 29103 28
23283 29101 29104 28
23284 29101 29105 28
23285 29106 29107 28
23286 29106 29108 28
23287 29106 29109 28
23288 29106 29110 28
23289 29111 29112 28
23290 29111 29113 28
23291 29111 29114 28
23292 29111 29115 28
23293 29116 29117 28
23294 29116 29118 28
23295 29116 29119 28
23296 29116 29120 28
23297 29121 29122 28
23298 29121 29123 28
23299 29121 29124 28
23300 29121 29125 28
23301 29126 29127 28
23302 29126 29128 28
23303 29126 29129 28
23304 29126 29130 28
23305 29131 29132 28
23306 29131 29133 28
23307 29131 29134 28
23308 29131 29135 28
23309 29136 29137 28
23310 29136 29138 28
23311 29136 29139 28
23312 29136 29140 28
23313 29141 29142 28
23314 29141 29143 28
23315 29141 29144 28
23316 29141 29145 28
23317 29146 29147 28
23318 29146 29148 28
23319 29146 29149 28
23320 29146 29150 28
23321 29151 29152 28
23322 29151 29153 28
23323 29151 29154 28
23324 29151 29155 28
23325 29156 29157 28
23326 29156 29158 28
23327 29156 29159 28
23328 29156 29160 28
23329 29161 29162 28
23330 29161 29163 28
23331 29161 29164 28
23332 29161 29165 28
23333 29166 29167 28
23334 29166 29168 28
23335 29166 29169 28
23336 29166 29170 28
23337 29171 29172 28
23338 29171 29173 28
23339 29171 29174 28
23340 29171 29175 28
23341 29176 29177 28
23342 29176 29178 28
23343 29176 29179 28
23344 29176 29180 28
23345 29181 29182 28
23346 29181 29183 28
23347 29181 29184 28
23348 29181 29185 28
23349 29186 29187 28
23350 29186 29188 28
23351 29186 29189 28
23352 29186 29190 28
23353 29191 29192 28
23354 29191 29193 28
23355 29191 29194 28
23356 29191 29195 28
23357 29196 29197 28
23358 29196 29198 28
23359 29196 29199 28
23360 29196 29200 28
23361 29201 29202 28
23362 29201 29203 28
23363 29201 29204 28
23364 29201 29205 28
23365 29206 29207 28
23366 29206 29208 28
23367 29206 29209 28
23368 29206 29210 28
23369 29211 29212 28
23370 29211 29213 28
23371 29211 29214 28
23372 29211 29215 28
23373 29216 29217 28
23374 29216 29218 28
23375 29216 29219 28
23376 29216 29220 28
23377 29221 29222 28
23378 29221 29223 28
23379 29221 29224 28
23380 29221 29225 28
23381 29226 29227 28
23382 29226 29228 28
23383 29226 29229 28
23384 29226 29230 28
23385 29231 29232 28
23386 29231 29233 28
23387 29231 29234 28
23388 29231 29235 28
23389 29236 29237 28
23390 29236 29238 28
23391 29236 29239 28
23392 29236 29240 28
23393 29241 29242 28
23394 29241 29243 28
23395 29241 29244 28
23396 29241 29245 28
23397 29246 29247 28
23398 29246 29248 28
23399 29246 29249 28
23400 29246 29250 28
23401 29251 29252 28
23402 29251 29253 28
23403 29251 29254 28
23404 29251 29255 28
23405 29256 29257 28
23406 29256 29258 28
23407 29256 29259 28
23408 29256 29260 28
23409 29261 29262 28
23410 29261 29263 28
23411 29261 29264 28
23412 29261 29265 28
23413 29266 29267 28
23414 29266 29268 28
23415 29266 29269 28
23416 29266 29270 28
23417 29271 29272 28
23418 29271 29273 28
23419 29271 29274 28
23420 29271 29275 28
23421 29276 29277 28
23422 29276 29278 28
23423 29276 29279 28
23424 29276 29280 28
23425 29281 29282 28
23426 29281 29283 28
23427 29281 29284 28
23428 29281 29285 28
23429 29286 29287 28
23430 29286 29288 28
23431 29286 29289 28
23432 29286 29290 28
23433 29291 29292 28
23434 29291 29293 28
23435 29291 29294 28
23436 29291 29295 28
23437 29296 29297 28
23438 29296 29298 28
23439 29296 29299 28
23440 29296 29300 28
23441 29301 29302 28
23442 29301 29303 28
23443 29301 29304 28
23444 29301 29305 28
23445 29306 29307 28
23446 29306 29308 28
23447 29306 29309 28
23448 29306 29310 28
23449 29311 29312 28
23450 29311 29313 28
23451 29311 29314 28
23452 29311 29315 28
23453 29316 29317 28
23454 29316 29318 28
23455 29316 29319 28
23456 29316 29320 28
23457 29321 29322 28
23458 29321 29323 28
23459 29321 29324 28
23460 29321 29325 28
23461 29326 29327 28
23462 29326 29328 28
23463 29326 29329 28
23464 29326 29330 28
23465 29331 29332 28
23466 29331 29333 28
23467 29331 29334 28
23468 29331 29335 28
23469 29336 29337 28
23470 29336 29338 28
23471 29336 29339 28
23472 29336 29340 28
23473 29341 29342 28
23474 29341 29343 28
23475 29341 29344 28
23476 29341 29345 28
23477 29346 29347 28
23478 29346 29348 28
23479 29346 29349 28
23480 29346 29350 28
23481 29351 29352 28
23482 29351 29353 28
23483 29351 29354 28
23484 29351 29355 28
23485 29356 29357 28
23486 29356 29358 28
23487 29356 29359 28
23488 29356 29360 28
23489 29361 29362 28
23490 29361 29363 28
23491 29361 29364 28
23492 29361 29365 28
23493 29366 29367 28
23494 29366 29368 28
23495 29366 29369 28
23496 29366 29370 28
23497 29371 29372 28
23498 29371 29373 28
23499 29371 29374 28
23500 29371 29375 28
23501 29376 29377 28
23502 29376 29378 28
23503 29376 29379 28
23504 29376 29380 28
23505 29381 29382 28
23506 29381 29383 28
23507 29381 29384 28
23508 29381 29385 28
23509 29386 29387 28
23510 29386 29388 28
23511 29386 29389 28
23512 29386 29390 28
23513 29391 29392 28
23514 29391 29393 28
23515 29391 29394 28
23516 29391 29395 28
23517 29396 29397 28
23518 29396 29398 28
23519 29396 29399 28
23520 29396 29400 28
23521 29401 29402 28
23522 29401 29403 28
23523 29401 29404 28
23524 29401 29405 28
23525 29406 29407 28
23526 29406 29408 28
23527 29406 29409 28
23528 29406 29410 28
23529 29411 29412 28
23530 29411 29413 28
23531 29411 29414 28
23532 29411 29415 28
23533 29416 29417 28
23534 29416 29418 28
23535 29416 29419 28
23536 29416 29420 28
23537 29421 29422 28
23538 29421 29423 28
23539 29421 29424 28
23540 29421 29425 28
23541 29426 29427 28
23542 29426 29428 28
23543 29426 29429 28
23544 29426 29430 28
23545 29431 29432 28
23546 29431 29433 28
23547 29431 29434 28
23548 29431 29435 28
23549 29436 29437 28
23550 29436 29438 28
23551 29436 29439 28
23552 29436 29440 28
23553 29441 29442 28
23554 29441 29443 28
23555 29441 29444 28
23556 29441 29445 28
23557 29446 29447 28
23558 29446 29448 28
23559 29446 29449 28
23560 29446 29450 28
23561 29451 29452 28
23562 29451 29453 28
23563 29451 29454 28
23564 29451 29455 28
23565 29456 29457 28
23566 29456 29458 28
23567 29456 29459 28
23568 29456 29460 28
23569 29461 29462 28
23570 29461 29463 28
23571 29461 29464 28
23572 29461 29465 28
23573 29466 29467 28
23574 29466 29468 28
23575 29466 29469 28
23576 29466 29470 28
23577 29471 29472 28
23578 29471 29473 28
23579 29471 29474 28
23580 29471 29475 28
23581 29476 29477 28
23582 29476 29478 28
23583 29476 29479 28
23584 29476 29480 28
23585 29481 29482 28
23586 29481 29483 28
23587 29481 29484 28
23588 29481 29485 28
23589 29486 29487 28
23590 29486 29488 28
23591 29486 29489 28
23592 29486 29490 28
23593 29491 29492 28
23594 29491 29493 28
23595 29491 29494 28
23596 29491 29495 28
23597 29496 29497 28
23598 29496 29498 28
23599 29496 29499 28
23600 29496 29500 28
23601 29501 29502 28
23602 29501 29503 28
23603 29501 29504 28
23604 29501 29505 28
23605 29506 29507 28
23606 29506 29508 28
23607 29506 29509 28
23608 29506 29510 28
23609 29511 29512 28
23610 29511 29513 28
23611 29511 29514 28
23612 29511 29515 28
23613 29516 29517 28
23614 29516 29518 28
23615 29516 29519 28
23616 29516 29520 28
23617 29521 29522 28
23618 29521 29523 28
23619 29521 29524 28
23620 29521 29525 28
23621 29526 29527 28
23622 29526 29528 28
23623 29526 29529 28
23624 29526 29530 28
23625 29531 29532 28
23626 29531 29533 28
23627 29531 29534 28
23628 29531 29535 28
23629 29536 29537 28
23630 29536 29538 28
23631 29536 29539 28
23632 29536 29540 28
23633 29541 29542 28
23634 29541 29543 28
23635 29541 29544 28
23636 29541 29545 28
23637 29546 29547 28
23638 29546 29548 28
23639 29546 29549 28
23640 29546 29550 28
23641 29551 29552 28
23642 29551 29553 28
23643 29551 29554 28
23644 29551 29555 28
23645 29556 29557 28
23646 29556 29558 28
23647 29556 29559 28
23648 29556 29560 28
23649 29561 29562 28
23650 29561 29563 28
23651 29561 29564 28
23652 29561 29565 28
23653 29566 29567 28
23654 29566 29568 28
23655 29566 29569 28
23656 29566 29570 28
23657 29571 29572 28
23658 29571 29573 28
23659 29571 29574 28
23660 29571 29575 28
23661 29576 29577 28
23662 29576 29578 28
23663 29576 29579 28
23664 29576 29580 28
23665 29581 29582 28
23666 29581 29583 28
23667 29581 29584 28
23668 29581 29585 28
23669 29586 29587 28
23670 29586 29588 28
23671 29586 29589 28
23672 29586 29590 28
23673 29591 29592 28
23674 29591 29593 28
23675 29591 29594 28
23676 29591 29595 28
23677 29596 29597 28
23678 29596 29598 28
23679 29596 29599 28
23680 29596 29600 28
23681 29601 29602 28
23682 29601 29603 28
23683 29601 29604 28
23684 29601 29605 28
23685 29606 29607 28
23686 29606 29608 28
23687 29606 29609 28
23688 29606 29610 28
23689 29611 29612 28
23690 29611 29613 28
23691 29611 29614 28
23692 29611 29615 28
23693 29616 29617 28
23694 29616 29618 28
23695 29616 29619 28
23696 29616 29620 28
23697 29621 29622 28
23698 29621 29623 28
23699 29621 29624 28
23700 29621 29625 28
23701 29626 29627 28
23702 29626 29628 28
23703 29626 29629 28
23704 29626 29630 28
23705 29631 29632 28
23706 29631 29633 28
23707 29631 29634 28
23708 29631 29635 28
23709 29636 29637 28
23710 29636 29638 28
23711 29636 29639 28
23712 29636 29640 28
23713 29641 29642 28
23714 29641 29643 28
23715 29641 29644 28
23716 29641 29645 28
23717 29646 29647 28
23718 29646 29648 28
23719 29646 29649 28
23720 29646 29650 28
23721 29651 29652 28
23722 29651 29653 28
23723 29651 29654 28
23724 29651 29655 28
23725 29656 29657 28
23726 29656 29658 28
23727 29656 29659 28
23728 29656 29660 28
23729 29661 29662 28
23730 29661 29663 28
23731 29661 29664 28
23732 29661 29665 28
23733 29666 29667 28
23734 29666 29668 28
23735 29666 29669 28
23736 29666 29670 28
23737 29671 29672 28
23738 29671 29673 28
23739 29671 29674 28
23740 29671 29675 28
23741 29676 29677 28
23742 29676 29678 28
23743 29676 29679 28
23744 29676 29680 28
23745 29681 29682 28
23746 29681 29683 28
23747 29681 29684 28
23748 29681 29685 28
23749 29686 29687 28
23750 29686 29688 28
23751 29686 29689 28
23752 29686 29690 28
23753 29691 29692 28
23754 29691 29693 28
23755 29691 29694 28
23756 29691 29695 28
23757 29696 29697 28
23758 29696 29698 28
23759 29696 29699 28
23760 29696 29700 28
23761 29701 29702 28
23762 29701 29703 28
23763 29701 29704 28
23764 29701 29705 28
23765 29706 29707 28
23766 29706 29708 28
23767 29706 29709 28
23768 29706 29710 28
23769 29711 29712 28
23770 29711 29713 28
23771 29711 29714 28
23772 29711 29715 28
23773 29716 29717 28
23774 29716 29718 28
23775 29716 29719 28
23776 29716 29720 28
23777 29721 29722 28
23778 29721 29723 28
23779 29721 29724 28
23780 29721 29725 28
23781 29726 29727 28
23782 29726 29728 28
23783 29726 29729 28
23784 29726 29730 28
23785 29731 29732 28
23786 29731 29733 28
23787 29731 29734 28
23788 29731 29735 28
23789 29736 29737 28
23790 29736 29738 28
23791 29736 29739 28
23792 29736 29740 28
23793 29741 29742 28
23794 29741 29743 28
23795 29741 29744 28
23796 29741 29745 28
23797 29746 29747 28
23798 29746 29748 28
23799 29746 29749 28
23800 29746 29750 28
23801 29751 29752 28
23802 29751 29753 28
23803 29751 29754 28
23804 29751 29755 28
23805 29756 29757 28
23806 29756 29758 28
23807 29756 29759 28
23808 29756 29760 28
23809 29761 29762 28
23810 29761 29763 28
23811 29761 29764 28
23812 29761 29765 28
23813 29766 29767 28
23814 29766 29768 28
23815 29766 29769 28
23816 29766 29770 28
23817 29771 29772 28
23818 29771 29773 28
23819 29771 29774 28
23820 29771 29775 28
23821 29776 29777 28
23822 29776 29778 28
23823 29776 29779 28
23824 29776 29780 28
23825 29781 29782 28
23826 29781 29783 28
23827 29781 29784 28
23828 29781 29785 28
23829 29786 29787 28
23830 29786 29788 28
23831 29786 29789 28
23832 29786 29790 28
23833 29791 29792 28
23834 29791 29793 28
23835 29791 29794 28
23836 29791 29795 28
23837 29796 29797 28
23838 29796 29798 28
23839 29796 29799 28
23840 29796 29800 28
23841 29801 29802 28
23842 29801 29803 28
23843 29801 29804 28
23844 29801 29805 28
23845 29806 29807 28
23846 29806 29808 28
23847 29806 29809 28
23848 29806 29810 28
23849 29811 29812 28
23850 29811 29813 28
23851 29811 29814 28
23852 29811 29815 28
23853 29816 29817 28
23854 29816 29818 28
23855 29816 29819 28
23856 29816 29820 28
23857 29821 29822 28
23858 29821 29823 28
23859 29821 29824 28
23860 29821 29825 28
23861 29826 29827 28
23862 29826 29828 28
23863 29826 29829 28
23864 29826 29830 28
23865 29831 29832 28
23866 29831 29833 28
23867 29831 29834 28
23868 29831 29835 28
23869 29836 29837 28
23870 29836 29838 28
23871 29836 29839 28
23872 29836 29840 28
23873 29841 29842 28
23874 29841 29843 28
23875 29841 29844 28
23876 29841 29845 28
23877 29846 29847 28
23878 29846 29848 28
23879 29846 29849 28
23880 29846 29850 28
23881 29851 29852 28
23882 29851 29853 28
23883 29851 29854 28
23884 29851 29855 28
23885 29856 29857 28
23886 29856 29858 28
23887 29856 29859 28
23888 29856 29860 28
23889 29861 29862 28
23890 29861 29863 28
23891 29861 29864 28
23892 29861 29865 28
23893 29866 29867 28
23894 29866 29868 28
23895 29866 29869 28
23896 29866 29870 28
23897 29871 29872 28
23898 29871 29873 28
23899 29871 29874 28
23900 29871 29875 28
23901 29876 29877 28
23902 29876 29878 28
23903 29876 29879 28
23904 29876 29880 28
23905 29881 29882 28
23906 29881 29883 28
23907 29881 29884 28
23908 29881 29885 28
23909 29886 29887 28
23910 29886 29888 28
23911 29886 29889 28
23912 29886 29890 28
23913 29891 29892 28
23914 29891 29893 28
23915 29891 29894 28
23916 29891 29895 28
23917 29896 29897 28
23918 29896 29898 28
23919 29896 29899 28
23920 29896 29900 28
23921 29901 29902 28
23922 29901 29903 28
23923 29901 29904 28
23924 29901 29905 28
23925 29906 29907 28
23926 29906 29908 28
23927 29906 29909 28
23928 29906 29910 28
23929 29911 29912 28
23930 29911 29913 28
23931 29911 29914 28
23932 29911 29915 28
23933 29916 29917 28
23934 29916 29918 28
23935 29916 29919 28
23936 29916 29920 28
23937 29921 29922 28
23938 29921 29923 28
23939 29921 29924 28
23940 29921 29925 28
23941 29926 29927 28
23942 29926 29928 28
23943 29926 29929 28
23944 29926 29930 28
23945 29931 29932 28
23946 29931 29933 28
23947 29931 29934 28
23948 29931 29935 28
23949 29936 29937 28
23950 29936 29938 28
23951 29936 29939 28
23952 29936 29940 28
23953 29941 29942 28
23954 29941 29943 28
23955 29941 29944 28
23956 29941 29945 28
23957 29946 29947 28
23958 29946 29948 28
23959 29946 29949 28
23960 29946 29950 28
23961 29951 29952 28
23962 29951 29953 28
23963 29951 29954 28
23964 29951 29955 28
23965 29956 29957 28
23966 29956 29958 28
23967 29956 29959 28
23968 29956 29960 28
23969 29961 29962 28
23970 29961 29963 28
23971 29961 29964 28
23972 29961 29965 28
23973 29966 29967 28
23974 29966 29968 28
23975 29966 29969 28
23976 29966 29970 28
23977 29971 29972 28
23978 29971 29973 28
23979 29971 29974 28
23980 29971 29975 28
23981 29976 29977 28
23982 29976 29978 28
23983 29976 29979 28
23984 29976 29980 28
23985 29981 29982 28
23986 29981 29983 28
23987 29981 29984 28
23988 29981 29985 28
23989 29986 29987 28
23990 29986 29988 28
23991 29986 29989 28
23992 29986 29990 28
23993 29991 29992 28
23994 29991 29993 28
23995 29991 29994 28
23996 29991 29995 28
23997 29996 29997 28
23998 29996 29998 28
23999 29996 29999 28
24000 29996 30000 28
24001 30001 30002 28
24002 30001 30003 28
24003 30001 30004 28
24004 30001 30005 28
24005 30006 30007 28
24006 30006 30008 28
24007 30006 30009 28
24008 30006 30010 28
24009 30011 30012 28
24010 30011 30013 28
24011 30011 30014 28
24012 30011 30015 28
24013 30016 30017 28
24014 30016 30018 28
24015 30016 30019 28
24016 30016 30020 28
24017 30021 30022 28
24018 30021 30023 28
24019 30021 30024 28
24020 30021 30025 28
24021 30026 30027 28
24022 30026 30028 28
24023 30026 30029 28
24024 30026 30030 28
24025 30031 30032 28
24026 30031 30033 28
24027 30031 30034 28
24028 30031 30035 28
24029 30036 30037 28
24030 30036 30038 28
24031 30036 30039 28
24032 30036 30040 28
24033 30041 30042 28
24034 30041 30043 28
24035 30041 30044 28
24036 30041 30045 28
24037 30046 30047 28
24038 30046 30048 28
24039 30046 30049 28
24040 30046 30050 28
24041 30051 30052 28
24042 30051 30053 28
24043 30051 30054 28
24044 30051 30055 28
24045 30056 30057 28
24046 30056 30058 28
24047 30056 30059 28
24048 30056 30060 28
24049 30061 30062 28
24050 30061 30063 28
24051 30061 30064 28
24052 30061 30065 28
24053 30066 30067 28
24054 30066 30068 28
24055 30066 30069 28
24056 30066 30070 28
24057 30071 30072 28
24058 30071 30073 28
24059 30071 30074 28
24060 30071 30075 28
24061 30076 30077 28
24062 30076 30078 28
24063 30076 30079 28
24064 30076 30080 28
24065 30081 30082 28
24066 30081 30083 28
24067 30081 30084 28
24068 30081 30085 28
24069 30086 30087 28
24070 30086 30088 28
24071 30086 30089 28
24072 30086 30090 28
24073 30091 30092 28
24074 30091 30093 28
24075 30091 30094 28
24076 30091 30095 28
24077 30096 30097 28
24078 30096 30098 28
24079 30096 30099 28
24080 30096 30100 28
24081 30101 30102 28
24082 30101 30103 28
24083 30101 30104 28
24084 30101 30105 28
24085 30106 30107 28
24086 30106 30108 28
24087 30106 30109 28
24088 30106 30110 28
24089 30111 30112 28
24090 30111 30113 28
24091 30111 30114 28
24092 30111 30115 28
24093 30116 30117 28
24094 30116 30118 28
24095 30116 30119 28
24096 30116 30120 28
24097 30121 30122 28
24098 30121 30123 28
24099 30121 30124 28
24100 30121 30125 28
24101 30126 30127 28
24102 30126 30128 28
24103 30126 30129 28
24104 30126 30130 28
24105 30131 30132 28
24106 30131 30133 28
24107 30131 30134 28
24108 30131 30135 28
24109 30136 30137 28
24110 30136 30138 28
24111 30136 30139 28
24112 30136 30140 28
24113 30141 30142 28
24114 30141 30143 28
24115 30141 30144 28
24116 30141 30145 28
24117 30146 30147 28
24118 30146 30148 28
24119 30146 30149 28
24120 30146 30150 28
24121 30151 30152 28
24122 30151 30153 28
24123 30151 30154 28
24124 30151 30155 28
24125 30156 30157 28
24126 30156 30158 28
24127 30156 30159 28
24128 30156 30160 28
24129 30161 30162 28
24130 30161 30163 28
24131 30161 30164 28
24132 30161 30165 28
24133 30166 30167 28
24134 30166 30168 28
24135 30166 30169 28
24136 30166 30170 28
24137 30171 30172 28
24138 30171 30173 28
24139 30171 30174 28
24140 30171 30175 28
24141 30176 30177 28
24142 30176 30178 28
24143 30176 30179 28
24144 30176 30180 28
24145 30181 30182 28
24146 30181 30183 28
24147 30181 30184 28
24148 30181 30185 28
24149 30186 30187 28
24150 30186 30188 28
24151 30186 30189 28
24152 30186 30190 28
24153 30191 30192 28
24154 30191 30193 28
24155 30191 30194 28
24156 30191 30195 28
24157 30196 30197 28
24158 30196 30198 28
24159 30196 30199 28
24160 30196 30200 28
24161 30201 30202 28
24162 30201 30203 28
24163 30201 30204 28
24164 30201 30205 28
24165 30206 30207 28
24166 30206 30208 28
24167 30206 30209 28
24168 30206 30210 28
24169 30211 30212 28
24170 30211 30213 28
24171 30211 30214 28
24172 30211 30215 28
24173 30216 30217 28
24174 30216 30218 28
24175 30216 30219 28
24176 30216 30220 28
24177 30221 30222 28
24178 30221 30223 28
24179 30221 30224 28
24180 30221 30225 28
24181 30226 30227 28
24182 30226 30228 28
24183 30226 30229 28
24184 30226 30230 28
24185 30231 30232 28
24186 30231 30233 28
24187 30231 30234 28
24188 30231 30235 28
24189 30236 30237 28
24190 30236 30238 28
24191 30236 30239 28
24192 30236 30240 28
24193 30241 30242 28
24194 30241 30243 28
24195 30241 30244 28
24196 30241 30245 28
24197 30246 30247 28
24198 30246 30248 28
24199 30246 30249 28
24200 30246 30250 28
24201 30251 30252 28
24202 30251 30253 28
24203 30251 30254 28
24204 30251 30255 28
24205 30256 30257 28
24206 30256 30258 28
24207 30256 30259 28
24208 30256 30260 28
24209 30261 30262 28
24210 30261 30263 28
24211 30261 30264 28
24212 30261 30265 28
24213 30266 30267 28
24214 30266 30268 28
24215 30266 30269 28
24216 30266 30270 28
24217 30271 30272 28
24218 30271 30273 28
24219 30271 30274 28
24220 30271 30275 28
24221 30276 30277 28
24222 30276 30278 28
24223 30276 30279 28
24224 30276 30280 28
24225 30281 30282 28
24226 30281 30283 28
24227 30281 30284 28
24228 30281 30285 28
24229 30286 30287 28
24230 30286 30288 28
24231 30286 30289 28
24232 30286 30290 28
24233 30291 30292 28
24234 30291 30293 28
24235 30291 30294 28
24236 30291 30295 28
24237 30296 30297 28
24238 30296 30298 28
24239 30296 30299 28
24240 30296 30300 28
24241 30301 30302 28
24242 30301 30303 28
24243 30301 30304 28
24244 30301 30305 28
24245 30306 30307 28
24246 30306 30308 28
24247 30306 30309 28
24248 30306 30310 28
24249 30311 30312 28
24250 30311 30313 28
24251 30311 30314 28
24252 30311 30315 28
24253 30316 30317 28
24254 30316 30318 28
24255 30316 30319 28
24256 30316 30320 28
24257 30321 30322 28
24258 30321 30323 28
24259 30321 30324 28
24260 30321 30325 28
24261 30326 30327 28
24262 30326 30328 28
24263 30326 30329 28
24264 30326 30330 28
24265 30331 30332 28
24266 30331 30333 28
24267 30331 30334 28
24268 30331 30335 28
24269 30336 30337 28
24270 30336 30338 28
24271 30336 30339 28
24272 30336 30340 28
24273 30341 30342 28
24274 30341 30343 28
24275 30341 30344 28
24276 30341 30345 28
24277 30346 30347 28
24278 30346 30348 28
24279 30346 30349 28
24280 30346 30350 28
24281 30351 30352 28
24282 30351 30353 28
24283 30351 30354 28
24284 30351 30355 28
24285 30356 30357 28
24286 30356 30358 28
24287 30356 30359 28
24288 30356 30360 28
24289 30361 30362 28
24290 30361 30363 28
24291 30361 30364 28
24292 30361 30365 28
24293 30366 30367 28
24294 30366 30368 28
24295 30366 30369 28
24296 30366 30370 28
24297 30371 30372 28
24298 30371 30373 28
24299 30371 30374 28
24300 30371 30375 28
24301 30376 30377 28
24302 30376 30378 28
24303 30376 30379 28
24304 30376 30380 28
24305 30381 30382 28
24306 30381 30383 28
24307 30381 30384 28
24308 30381 30385 28
24309 30386 30387 28
24310 30386 30388 28
24311 30386 30389 28
24312 30386 30390 28
24313 30391 30392 28
24314 30391 30393 28
24315 30391 30394 28
24316 30391 30395 28
24317 30396 30397 28
24318 30396 30398 28
24319 30396 30399 28
24320 30396 30400 28
24321 30401 30402 28
24322 30401 30403 28
24323 30401 30404 28
24324 30401 30405 28
24325 30406 30407 28
24326 30406 30408 28
24327 30406 30409 28
24328 30406 30410 28
24329 30411 30412 28
24330 30411 30413 28
24331 30411 30414 28
24332 30411 30415 28
24333 30416 30417 28
24334 30416 30418 28
24335 30416 30419 28
24336 30416 30420 28
24337 30421 30422 28
24338 30421 30423 28
24339 30421 30424 28
24340 30421 30425 28
24341 30426 30427 28
24342 30426 30428 28
24343 30426 30429 28
24344 30426 30430 28
24345 30431 30432 28
24346 30431 30433 28
24347 30431 30434 28
24348 30431 30435 28
24349 30436 30437 28
24350 30436 30438 28
24351 30436 30439 28
24352 30436 30440 28
24353 30441 30442 28
24354 30441 30443 28
24355 30441 30444 28
24356 30441 30445 28
24357 30446 30447 28
24358 30446 30448 28
24359 30446 30449 28
24360 30446 30450 28
24361 30451 30452 28
24362 30451 30453 28
24363 30451 30454 28
24364 30451 30455 28
24365 30456 30457 28
24366 30456 30458 28
24367 30456 30459 28
24368 30456 30460 28
24369 30461 30462 28
24370 30461 30463 28
24371 30461 30464 28
24372 30461 30465 28
24373 30466 30467 28
24374 30466 30468 28
24375 30466 30469 28
24376 30466 30470 28
24377 30471 30472 28
24378 30471 30473 28
24379 30471 30474 28
24380 30471 30475 28
24381 30476 30477 28
24382 30476 30478 28
24383 30476 30479 28
24384 30476 30480 28
24385 30481 30482 28
24386 30481 30483 28
24387 30481 30484 28
24388 30481 30485 28
24389 30486 30487 28
24390 30486 30488 28
24391 30486 30489 28
24392 30486 30490 28
24393 30491 30492 28
24394 30491 30493 28
24395 30491 30494 28
24396 30491 30495 28
24397 30496 30497 28
24398 30496 30498 28
24399 30496 30499 28
24400 30496 30500 28
24401 30501 30502 28
24402 30501 30503 28
24403 30501 30504 28
24404 30501 30505 28
24405 30506 30507 28
24406 30506 30508 28
24407 30506 30509 28
24408 30506 30510 28
24409 30511 30512 28
24410 30511 30513 28
24411 30511 30514 28
24412 30511 30515 28
24413 30516 30517 28
24414 30516 30518 28
24415 30516 30519 28
24416 30516 30520 28
24417 30521 30522 28
24418 30521 30523 28
24419 30521 30524 28
24420 30521 30525 28
24421 30526 30527 28
24422 30526 30528 28
24423 30526 30529 28
24424 30526 30530 28
24425 30531 30532 28
24426 30531 30533 28
24427 30531 30534 28
24428 30531 30535 28
24429 30536 30537 28
24430 30536 30538 28
24431 30536 30539 28
24432 30536 30540 28
24433 30541 30542 28
24434 30541 30543 28
24435 30541 30544 28
24436 30541 30545 28
24437 30546 30547 28
24438 30546 30548 28
24439 30546 30549 28
24440 30546 30550 28
24441 30551 30552 28
24442 30551 30553 28
24443 30551 30554 28
24444 30551 30555 28
24445 30556 30557 28
24446 30556 30558 28
24447 30556 30559 28
24448 30556 30560 28
24449 30561 30562 28
24450 30561 30563 28
24451 30561 30564 28
24452 30561 30565 28
24453 30566 30567 28
24454 30566 30568 28
24455 30566 30569 28
24456 30566 30570 28
24457 30571 30572 28
24458 30571 30573 28
24459 30571 30574 28
24460 30571 30575 28
24461 30576 30577 28
24462 30576 30578 28
24463 30576 30579 28
24464 30576 30580 28
24465 30581 30582 28
24466 30581 30583 28
24467 30581 30584 28
24468 30581 30585 28
24469 30586 30587 28
24470 30586 30588 28
24471 30586 30589 28
24472 30586 30590 28
24473 30591 30592 28
24474 30591 30593 28
24475 30591 30594 28
24476 30591 30595 28
24477 30596 30597 28
24478 30596 30598 28
24479 30596 30599 28
24480 30596 30600 28
24481 30601 30602 28
24482 30601 30603 28
24483 30601 30604 28
24484 30601 30605 28
24485 30606 30607 28
24486 30606 30608 28
24487 30606 30609 28
24488 30606 30610 28
24489 30611 30612 28
24490 30611 30613 28
24491 30611 30614 28
24492 30611 30615 28
24493 30616 30617 28
24494 30616 30618 28
24495 30616 30619 28
24496 30616 30620 28
24497 30621 30622 28
24498 30621 30623 28
24499 30621 30624 28
24500 30621 30625 28
24501 30626 30627 28
24502 30626 30628 28
24503 30626 30629 28
24504 30626 30630 28
24505 30631 30632 28
24506 30631 30633 28
24507 30631 30634 28
24508 30631 30635 28
24509 30636 30637 28
24510 30636 30638 28
24511 30636 30639 28
24512 30636 30640 28
24513 30641 30642 28
24514 30641 30643 28
24515 30641 30644 28
24516 30641 30645 28
24517 30646 30647 28
24518 30646 30648 28
24519 30646 30649 28
24520 30646 30650 28
24521 30651 30652 28
24522 30651 30653 28
24523 30651 30654 28
24524 30651 30655 28
24525 30656 30657 28
24526 30656 30658 28
24527 30656 30659 28
24528 30656 30660 28
24529 30661 30662 28
24530 30661 30663 28
24531 30661 30664 28
24532 30661 30665 28
24533 30666 30667 28
24534 30666 30668 28
24535 30666 30669 28
24536 30666 30670 28
24537 30671 30672 28
24538 30671 30673 28
24539 30671 30674 28
24540 30671 30675 28
24541 30676 30677 28
24542 30676 30678 28
24543 30676 30679 28
24544 30676 30680 28
24545 30681 30682 28
24546 30681 30683 28
24547 30681 30684 28
24548 30681 30685 28
24549 30686 30687 28
24550 30686 30688 28
24551 30686 30689 28
24552 30686 30690 28
24553 30691 30692 28
24554 30691 30693 28
24555 30691 30694 28
24556 30691 30695 28
24557 30696 30697 28
24558 30696 30698 28
24559 30696 30699 28
24560 30696 30700 28
24561 30701 30702 28
24562 30701 30703 28
24563 30701 30704 28
24564 30701 30705 28
24565 30706 30707 28
24566 30706 30708 28
24567 30706 30709 28
24568 30706 30710 28
24569 30711 30712 28
24570 30711 30713 28
24571 30711 30714 28
24572 30711 30715 28
24573 30716 30717 28
24574 30716 30718 28
24575 30716 30719 28
24576 30716 30720 28
24577 30721 30722 28
24578 30721 30723 28
24579 30721 30724 28
24580 30721 30725 28
24581 30726 30727 28
24582 30726 30728 28
24583 30726 30729 28
24584 30726 30730 28
24585 30731 30732 28
24586 30731 30733 28
24587 30731 30734 28
24588 30731 30735 28
24589 30736 30737 28
24590 30736 30738 28
24591 30736 30739 28
24592 30736 30740 28
24593 30741 30742 28
24594 30741 30743 28
24595 30741 30744 28
24596 30741 30745 28
24597 30746 30747 28
24598 30746 30748 28
24599 30746 30749 28
24600 30746 30750 28
24601 30751 30752 28
24602 30751 30753 28
24603 30751 30754 28
24604 30751 30755 28
24605 30756 30757 28
24606 30756 30758 28
24607 30756 30759 28
24608 30756 30760 28
24609 30761 30762 28
24610 30761 30763 28
24611 30761 30764 28
24612 30761 30765 28
24613 30766 30767 28
24614 30766 30768 28
24615 30766 30769 28
24616 30766 30770 28
24617 30771 30772 28
24618 30771 30773 28
24619 30771 30774 28
24620 30771 30775 28
24621 30776 30777 28
24622 30776 30778 28
24623 30776 30779 28
24624 30776 30780 28
24625 30781 30782 28
24626 30781 30783 28
24627 30781 30784 28
24628 30781 30785 28
24629 30786 30787 28
24630 30786 30788 28
24631 30786 30789 28
24632 30786 30790 28
24633 30791 30792 28
24634 30791 30793 28
24635 30791 30794 28
24636 30791 30795 28
24637 30796 30797 28
24638 30796 30798 28
24639 30796 30799 28
24640 30796 30800 28
24641 30801 30802 28
24642 30801 30803 28
24643 30801 30804 28
24644 30801 30805 28
24645 30806 30807 28
24646 30806 30808 28
24647 30806 30809 28
24648 30806 30810 28
24649 30811 30812 28
24650 30811 30813 28
24651 30811 30814 28
24652 30811 30815 28
24653 30816 30817 28
24654 30816 30818 28
24655 30816 30819 28
24656 30816 30820 28
24657 30821 30822 28
24658 30821 30823 28
24659 30821 30824 28
24660 30821 30825 28
24661 30826 30827 28
24662 30826 30828 28
24663 30826 30829 28
24664 30826 30830 28
24665 30831 30832 28
24666 30831 30833 28
24667 30831 30834 28
24668 30831 30835 28
24669 30836 30837 28
24670 30836 30838 28
24671 30836 30839 28
24672 30836 30840 28
24673 30841 30842 28
24674 30841 30843 28
24675 30841 30844 28
24676 30841 30845 28
24677 30846 30847 28
24678 30846 30848 28
24679 30846 30849 28
24680 30846 30850 28
24681 30851 30852 28
24682 30851 30853 28
24683 30851 30854 28
24684 30851 30855 28
24685 30856 30857 28
24686 30856 30858 28
24687 30856 30859 28
24688 30856 30860 28
24689 30861 30862 28
24690 30861 30863 28
24691 30861 30864 28
24692 30861 30865 28
24693 30866 30867 28
24694 30866 30868 28
24695 30866 30869 28
24696 30866 30870 28
24697 30871 30872 28
24698 30871 30873 28
24699 30871 30874 28
24700 30871 30875 28
24701 30876 30877 28
24702 30876 30878 28
24703 30876 30879 28
24704 30876 30880 28
24705 30881 30882 28
24706 30881 30883 28
24707 30881 30884 28
24708 30881 30885 28
24709 30886 30887 28
24710 30886 30888 28
24711 30886 30889 28
24712 30886 30890 28
24713 30891 30892 28
24714 30891 30893 28
24715 30891 30894 28
24716 30891 30895 28
24717 30896 30897 28
24718 30896 30898 28
24719 30896 30899 28
24720 30896 30900 28
24721 30901 30902 28
24722 30901 30903 28
24723 30901 30904 28
24724 30901 30905 28
24725 30906 30907 28
24726 30906 30908 28
24727 30906 30909 28
24728 30906 30910 28
24729 30911 30912 28
24730 30911 30913 28
24731 30911 30914 28
24732 30911 30915 28
24733 30916 30917 28
24734 30916 30918 28
24735 30916 30919 28
24736 30916 30920 28
24737 30921 30922 28
24738 30921 30923 28
24739 30921 30924 28
24740 30921 30925 28
24741 30926 30927 28
24742 30926 30928 28
24743 30926 30929 28
24744 30926 30930 28
24745 30931 30932 28
24746 30931 30933 28
24747 30931 30934 28
24748 30931 30935 28
24749 30936 30937 28
24750 30936 30938 28
24751 30936 30939 28
24752 30936 30940 28
24753 30941 30942 28
24754 30941 30943 28
24755 30941 30944 28
24756 30941 30945 28
24757 30946 30947 28
24758 30946 30948 28
24759 30946 30949 28
24760 30946 30950 28
24761 30951 30952 28
24762 30951 30953 28
24763 30951 30954 28
24764 30951 30955 28
24765 30956 30957 28
24766 30956 30958 28
24767 30956 30959 28
24768 30956 30960 28
24769 30961 30962 28
24770 30961 30963 28
24771 30961 30964 28
24772 30961 30965 28
24773 30966 30967 28
24774 30966 30968 28
24775 30966 30969 28
24776 30966 30970 28
24777 30971 30972 28
24778 30971 30973 28
24779 30971 30974 28
24780 30971 30975 28
24781 30976 30977 28
24782 30976 30978 28
24783 30976 30979 28
24784 30976 30980 28
24785 30981 30982 28
24786 30981 30983 28
24787 30981 30984 28
24788 30981 30985 28
24789 30986 30987 28
24790 30986 30988 28
24791 30986 30989 28
24792 30986 30990 28
24793 30991 30992 28
24794 30991 30993 28
24795 30991 30994 28
24796 30991 30995 28
24797 30996 30997 28
24798 30996 30998 28
24799 30996 30999 28
24800 30996 31000 28
24801 31001 31002 28
24802 31001 31003 28
24803 31001 31004 28
24804 31001 31005 28
24805 31006 31007 28
24806 31006 31008 28
24807 31006 31009 28
24808 31006 31010 28
24809 31011 31012 28
24810 31011 31013 28
24811 31011 31014 28
24812 31011 31015 28
24813 31016 31017 28
24814 31016 31018 28
24815 31016 31019 28
24816 31016 31020 28
24817 31021 31022 28
24818 31021 31023 28
24819 31021 31024 28
24820 31021 31025 28
24821 31026 31027 28
24822 31026 31028 28
24823 31026 31029 28
24824 31026 31030 28
24825 31031 31032 28
24826 31031 31033 28
24827 31031 31034 28
24828 31031 31035 28
24829 31036 31037 28
24830 31036 31038 28
24831 31036 31039 28
24832 31036 31040 28
24833 31041 31042 28
24834 31041 31043 28
24835 31041 31044 28
24836 31041 31045 28
24837 31046 31047 28
24838 31046 31048 28
24839 31046 31049 28
24840 31046 31050 28
24841 31051 31052 28
24842 31051 31053 28
24843 31051 31054 28
24844 31051 31055 28
24845 31056 31057 28
24846 31056 31058 28
24847 31056 31059 28
24848 31056 31060 28
24849 31061 31062 28
24850 31061 31063 28
24851 31061 31064 28
24852 31061 31065 28
24853 31066 31067 28
24854 31066 31068 28
24855 31066 31069 28
24856 31066 31070 28
24857 31071 31072 28
24858 31071 31073 28
24859 31071 31074 28
24860 31071 31075 28
24861 31076 31077 28
24862 31076 31078 28
24863 31076 31079 28
24864 31076 31080 28
24865 31081 31082 28
24866 31081 31083 28
24867 31081 31084 28
24868 31081 31085 28
24869 31086 31087 28
24870 31086 31088 28
24871 31086 31089 28
24872 31086 31090 28
24873 31091 31092 28
24874 31091 31093 28
24875 31091 31094 28
24876 31091 31095 28
24877 31096 31097 28
24878 31096 31098 28
24879 31096 31099 28
24880 31096 31100 28
24881 31101 31102 28
24882 31101 31103 28
24883 31101 31104 28
24884 31101 31105 28
24885 31106 31107 28
24886 31106 31108 28
24887 31106 31109 28
24888 31106 31110 28
24889 31111 31112 28
24890 31111 31113 28
24891 31111 31114 28
24892 31111 31115 28
24893 31116 31117 28
24894 31116 31118 28
24895 31116 31119 28
24896 31116 31120 28
24897 31121 31122 28
24898 31121 31123 28
24899 31121 31124 28
24900 31121 31125 28
24901 31126 31127 28
24902 31126 31128 28
24903 31126 31129 28
24904 31126 31130 28
24905 31131 31132 28
24906 31131 31133 28
24907 31131 31134 28
24908 31131 31135 28
24909 31136 31137 28
24910 31136 31138 28
24911 31136 31139 28
24912 31136 31140 28
24913 31141 31142 28
24914 31141 31143 28
24915 31141 31144 28
24916 31141 31145 28
24917 31146 31147 28
24918 31146 31148 28
24919 31146 31149 28
24920 31146 31150 28
24921 31151 31152 28
24922 31151 31153 28
24923 31151 31154 28
24924 31151 31155 28
24925 31156 31157 28
24926 31156 31158 28
24927 31156 31159 28
24928 31156 31160 28
24929 31161 31162 28
24930 31161 31163 28
24931 31161 31164 28
24932 31161 31165 28
24933 31166 31167 28
24934 31166 31168 28
24935 31166 31169 28
24936 31166 31170 28
24937 31171 31172 28
24938 31171 31173 28
24939 31171 31174 28
24940 31171 31175 28
24941 31176 31177 28
24942 31176 31178 28
24943 31176 31179 28
24944 31176 31180 28
24945 31181 31182 28
24946 31181 31183 28
24947 31181 31184 28
24948 31181 31185 28
24949 31186 31187 28
24950 31186 31188 28
24951 31186 31189 28
24952 31186 31190 28
24953 31191 31192 28
24954 31191 31193 28
24955 31191 31194 28
24956 31191 31195 28
24957 31196 31197 28
24958 31196 31198 28
24959 31196 31199 28
24960 31196 31200 28
24961 31201 31202 28
24962 31201 31203 28
24963 31201 31204 28
24964 31201 31205 28
24965 31206 31207 28
24966 31206 31208 28
24967 31206 31209 28
24968 31206 31210 28
24969 31211 31212 28
24970 31211 31213 28
24971 31211 31214 28
24972 31211 31215 28
24973 31216 31217 28
24974 31216 31218 28
24975 31216 31219 28
24976 31216 31220 28
24977 31221 31222 28
24978 31221 31223 28
24979 31221 31224 28
24980 31221 31225 28
24981 31226 31227 28
24982 31226 31228 28
24983 31226 31229 28
24984 31226 31230 28
24985 31231 31232 28
24986 31231 31233 28
24987 31231 31234 28
24988 31231 31235 28
24989 31236 31237 28
24990 31236 31238 28
24991 31236 31239 28
24992 31236 31240 28
24993 31241 31242 28
24994 31241 31243 28
24995 31241 31244 28
24996 31241 31245 28
24997 31246 31247 28
24998 31246 31248 28
24999 31246 31249 28
25000 31246 31250 28
25001 31251 31252 28
25002 31251 31253 28
25003 31251 31254 28
25004 31251 31255 28
25005 31256 31257 28
25006 31256 31258 28
25007 31256 31259 28
25008 31256 31260 28
25009 31261 31262 28
25010 31261 31263 28
25011 31261 31264 28
25012 31261 31265 28
25013 31266 31267 28
25014 31266 31268 28
25015 31266 31269 28
25016 31266 31270 28
25017 31271 31272 28
25018 31271 31273 28
25019 31271 31274 28
25020 31271 31275 28
25021 31276 31277 28
25022 31276 31278 28
25023 31276 31279 28
25024 31276 31280 28
25025 31281 31282 28
25026 31281 31283 28
25027 31281 31284 28
25028 31281 31285 28
25029 31286 31287 28
25030 31286 31288 28
25031 31286 31289 28
25032 31286 31290 28
25033 31291 31292 28
25034 31291 31293 28
25035 31291 31294 28
25036 31291 31295 28
25037 31296 31297 28
25038 31296 31298 28
25039 31296 31299 28
25040 31296 31300 28
25041 31301 31302 28
25042 31301 31303 28
25043 31301 31304 28
25044 31301 31305 28
25045 31306 31307 28
25046 31306 31308 28
25047 31306 31309 28
25048 31306 31310 28
25049 31311 31312 28
25050 31311 31313 28
25051 31311 31314 28
25052 31311 31315 28
25053 31316 31317 28
25054 31316 31318 28
25055 31316 31319 28
25056 31316 31320 28
25057 31321 31322 28
25058 31321 31323 28
25059 31321 31324 28
25060 31321 31325 28
25061 31326 31327 28
25062 31326 31328 28
25063 31326 31329 28
25064 31326 31330 28
25065 31331 31332 28
25066 31331 31333 28
25067 31331 31334 28
25068 31331 31335 28
25069 31336 31337 28
25070 31336 31338 28
25071 31336 31339 28
25072 31336 31340 28
25073 31341 31342 28
25074 31341 31343 28
25075 31341 31344 28
25076 31341 31345 28
25077 31346 31347 28
25078 31346 31348 28
25079 31346 31349 28
25080 31346 31350 28
25081 31351 31352 28
25082 31351 31353 28
25083 31351 31354 28
25084 31351 31355 28
25085 31356 31357 28
25086 31356 31358 28
25087 31356 31359 28
25088 31356 31360 28
25089 31361 31362 28
25090 31361 31363 28
25091 31361 31364 28
25092 31361 31365 28
25093 31366 31367 28
25094 31366 31368 28
25095 31366 31369 28
25096 31366 31370 28
25097 31371 31372 28
25098 31371 31373 28
25099 31371 31374 28
25100 31371 31375 28
25101 31376 31377 28
25102 31376 31378 28
25103 31376 31379 28
25104 31376 31380 28
25105 31381 31382 28
25106 31381 31383 28
25107 31381 31384 28
25108 31381 31385 28
25109 31386 31387 28
25110 31386 31388 28
25111 31386 31389 28
25112 31386 31390 28
25113 31391 31392 28
25114 31391 31393 28
25115 31391 31394 28
25116 31391 31395 28
25117 31396 31397 28
25118 31396 31398 28
25119 31396 31399 28
25120 31396 31400 28
25121 31401 31402 28
25122 31401 31403 28
25123 31401 31404 28
25124 31401 31405 28
25125 31406 31407 28
25126 31406 31408 28
25127 31406 31409 28
25128 31406 31410 28
25129 31411 31412 28
25130 31411 31413 28
25131 31411 31414 28
25132 31411 31415 28
25133 31416 31417 28
25134 31416 31418 28
25135 31416 31419 28
25136 31416 31420 28
25137 31421 31422 28
25138 31421 31423 28
25139 31421 31424 28
25140 31421 31425 28
25141 31426 31427 28
25142 31426 31428 28
25143 31426 31429 28
25144 31426 31430 28
25145 31431 31432 28
25146 31431 31433 28
25147 31431 31434 28
25148 31431 31435 28
25149 31436 31437 28
25150 31436 31438 28
25151 31436 31439 28
25152 31436 31440 28
25153 31441 31442 28
25154 31441 31443 28
25155 31441 31444 28
25156 31441 31445 28
25157 31446 31447 28
25158 31446 31448 28
25159 31446 31449 28
25160 31446 31450 28
25161 31451 31452 28
25162 31451 31453 28
25163 31451 31454 28
25164 31451 31455 28
25165 31456 31457 28
25166 31456 31458 28
25167 31456 31459 28
25168 31456 31460 28
25169 31461 31462 28
25170 31461 31463 28
25171 31461 31464 28
25172 31461 31465 28
25173 31466 31467 28
25174 31466 31468 28
25175 31466 31469 28
25176 31466 31470 28
25177 31471 31472 28
25178 31471 31473 28
25179 31471 31474 28
25180 31471 31475 28
25181 31476 31477 28
25182 31476 31478 28
25183 31476 31479 28
25184 31476 31480 28
25185 31481 31482 28
25186 31481 31483 28
25187 31481 31484 28
25188 31481 31485 28
25189 31486 31487 28
25190 31486 31488 28
25191 31486 31489 28
25192 31486 31490 28
25193 31491 31492 28
25194 31491 31493 28
25195 31491 31494 28
25196 31491 31495 28
25197 31496 31497 28
25198 31496 31498 28
25199 31496 31499 28
25200 31496 31500 28
25201 31501 31502 28
25202 31501 31503 28
25203 31501 31504 28
25204 31501 31505 28
25205 31506 31507 28
25206 31506 31508 28
25207 31506 31509 28
25208 31506 31510 28
25209 31511 31512 28
25210 31511 31513 28
25211 31511 31514 28
25212 31511 31515 28
25213 31516 31517 28
25214 31516 31518 28
25215 31516 31519 28
25216 31516 31520 28
25217 31521 31522 28
25218 31521 31523 28
25219 31521 31524 28
25220 31521 31525 28
25221 31526 31527 28
25222 31526 31528 28
25223 31526 31529 28
25224 31526 31530 28
25225 31531 31532 28
25226 31531 31533 28
25227 31531 31534 28
25228 31531 31535 28
25229 31536 31537 28
25230 31536 31538 28
25231 31536 31539 28
25232 31536 31540 28
25233 31541 31542 28
25234 31541 31543 28
25235 31541 31544 28
25236 31541 31545 28
25237 31546 31547 28
25238 31546 31548 28
25239 31546 31549 28
25240 31546 31550 28
25241 31551 31552 28
25242 31551 31553 28
25243 31551 31554 28
25244 31551 31555 28
25245 31556 31557 28
25246 31556 31558 28
25247 31556 31559 28
25248 31556 31560 28
25249 31561 31562 28
25250 31561 31563 28
25251 31561 31564 28
25252 31561 31565 28
25253 31566 31567 28
25254 31566 31568 28
25255 31566 31569 28
25256 31566 31570 28
25257 31571 31572 28
25258 31571 31573 28
25259 31571 31574 28
25260 31571 31575 28
25261 31576 31577 28
25262 31576 31578 28
25263 31576 31579 28
25264 31576 31580 28
25265 31581 31582 28
25266 31581 31583 28
25267 31581 31584 28
25268 31581 31585 28
25269 31586 31587 28
25270 31586 31588 28
25271 31586 31589 28
25272 31586 31590 28
25273 31591 31592 28
25274 31591 31593 28
25275 31591 31594 28
25276 31591 31595 28
25277 31596 31597 28
25278 31596 31598 28
25279 31596 31599 28
25280 31596 31600 28
25281 31601 31602 28
25282 31601 31603 28
25283 31601 31604 28
25284 31601 31605 28
25285 31606 31607 28
25286 31606 31608 28
25287 31606 31609 28
25288 31606 31610 28
25289 31611 31612 28
25290 31611 31613 28
25291 31611 31614 28
25292 31611 31615 28
25293 31616 31617 28
25294 31616 31618 28
25295 31616 31619 28
25296 31616 31620 28
25297 31621 31622 28
25298 31621 31623 28
25299 31621 31624 28
25300 31621 31625 28
25301 31626 31627 28
25302 31626 31628 28
25303 31626 31629 28
25304 31626 31630 28
25305 31631 31632 28
25306 31631 31633 28
25307 31631 31634 28
25308 31631 31635 28
25309 31636 31637 28
25310 31636 31638 28
25311 31636 31639 28
25312 31636 31640 28
25313 31641 31642 28
25314 31641 31643 28
25315 31641 31644 28
25316 31641 31645 28
25317 31646 31647 28
25318 31646 31648 28
25319 31646 31649 28
25320 31646 31650 28
25321 31651 31652 28
25322 31651 31653 28
25323 31651 31654 28
25324 31651 31655 28
25325 31656 31657 28
25326 31656 31658 28
25327 31656 31659 28
25328 31656 31660 28
25329 31661 31662 28
25330 31661 31663 28
25331 31661 31664 28
25332 31661 31665 28
25333 31666 31667 28
25334 31666 31668 28
25335 31666 31669 28
25336 31666 31670 28
25337 31671 31672 28
25338 31671 31673 28
25339 31671 31674 28
25340 31671 31675 28
25341 31676 31677 28
25342 31676 31678 28
25343 31676 31679 28
25344 31676 31680 28
25345 31681 31682 28
25346 31681 31683 28
25347 31681 31684 28
25348 31681 31685 28
25349 31686 31687 28
25350 31686 31688 28
25351 31686 31689 28
25352 31686 31690 28
25353 31691 31692 28
25354 31691 31693 28
25355 31691 31694 28
25356 31691 31695 28
25357 31696 31697 28
25358 31696 31698 28
25359 31696 31699 28
25360 31696 31700 28
25361 31701 31702 28
25362 31701 31703 28
25363 31701 31704 28
25364 31701 31705 28
25365 31706 31707 28
25366 31706 31708 28
25367 31706 31709 28
25368 31706 31710 28
25369 31711 31712 28
25370 31711 31713 28
25371 31711 31714 28
25372 31711 31715 28
25373 31716 31717 28
25374 31716 31718 28
25375 31716 31719 28
25376 31716 31720 28
25377 31721 31722 28
25378 31721 31723 28
25379 31721 31724 28
25380 31721 31725 28
25381 31726 31727 28
25382 31726 31728 28
25383 31726 31729 28
25384 31726 31730 28
25385 31731 31732 28
25386 31731 31733 28
25387 31731 31734 28
25388 31731 31735 28
25389 31736 31737 28
25390 31736 31738 28
25391 31736 31739 28
25392 31736 31740 28
25393 31741 31742 28
25394 31741 31743 28
25395 31741 31744 28
25396 31741 31745 28
25397 31746 31747 28
25398 31746 31748 28
25399 31746 31749 28
25400 31746 31750 28
25401 31751 31752 28
25402 31751 31753 28
25403 31751 31754 28
25404 31751 31755 28
25405 31756 31757 28
25406 31756 31758 28
25407 31756 31759 28
25408 31756 31760 28
25409 31761 31762 28
25410 31761 31763 28
25411 31761 31764 28
25412 31761 31765 28
25413 31766 31767 28
25414 31766 31768 28
25415 31766 31769 28
25416 31766 31770 28
25417 31771 31772 28
25418 31771 31773 28
25419 31771 31774 28
25420 31771 31775 28
25421 31776 31777 28
25422 31776 31778 28
25423 31776 31779 28
25424 31776 31780 28
25425 31781 31782 28
25426 31781 31783 28
25427 31781 31784 28
25428 31781 31785 28
25429 31786 31787 28
25430 31786 31788 28
25431 31786 31789 28
25432 31786 31790 28
25433 31791 31792 28
25434 31791 31793 28
25435 31791 31794 28
25436 31791 31795 28
25437 31796 31797 28
25438 31796 31798 28
25439 31796 31799 28
25440 31796 31800 28
25441 31801 31802 28
25442 31801 31803 28
25443 31801 31804 28
25444 31801 31805 28
25445 31806 31807 28
25446 31806 31808 28
25447 31806 31809 28
25448 31806 31810 28
25449 31811 31812 28
25450 31811 31813 28
25451 31811 31814 28
25452 31811 31815 28
25453 31816 31817 28
25454 31816 31818 28
25455 31816 31819 28
25456 31816 31820 28
25457 31821 31822 28
25458 31821 31823 28
25459 31821 31824 28
25460 31821 31825 28
25461 31826 31827 28
25462 31826 31828 28
25463 31826 31829 28
25464 31826 31830 28
25465 31831 31832 28
25466 31831 31833 28
25467 31831 31834 28
25468 31831 31835 28
25469 31836 31837 28
25470 31836 31838 28
25471 31836 31839 28
25472 31836 31840 28
25473 31841 31842 28
25474 31841 31843 28
25475 31841 31844 28
25476 31841 31845 28
25477 31846 31847 28
25478 31846 31848 28
25479 31846 31849 28
25480 31846 31850 28
25481 31851 31852 28
25482 31851 31853 28
25483 31851 31854 28
25484 31851 31855 28
25485 31856 31857 28
25486 31856 31858 28
25487 31856 31859 28
25488 31856 31860 28
25489 31861 31862 28
25490 31861 31863 28
25491 31861 31864 28
25492 31861 31865 28
25493 31866 31867 28
25494 31866 31868 28
25495 31866 31869 28
25496 31866 31870 28
25497 31871 31872 28
25498 31871 31873 28
25499 31871 31874 28
25500 31871 31875 28
25501 31876 31877 28
25502 31876 31878 28
25503 31876 31879 28
25504 31876 31880 28
25505 31881 31882 28
25506 31881 31883 28
25507 31881 31884 28
25508 31881 31885 28
25509 31886 31887 28
25510 31886 31888 28
25511 31886 31889 28
25512 31886 31890 28
25513 31891 31892 28
25514 31891 31893 28
25515 31891 31894 28
25516 31891 31895 28
25517 31896 31897 28
25518 31896 31898 28
25519 31896 31899 28
25520 31896 31900 28
25521 31901 31902 28
25522 31901 31903 28
25523 31901 31904 28
25524 31901 31905 28
25525 31906 31907 28
25526 31906 31908 28
25527 31906 31909 28
25528 31906 31910 28
25529 31911 31912 28
25530 31911 31913 28
25531 31911 31914 28
25532 31911 31915 28
25533 31916 31917 28
25534 31916 31918 28
25535 31916 31919 28
25536 31916 31920 28
25537 31921 31922 28
25538 31921 31923 28
25539 31921 31924 28
25540 31921 31925 28
25541 31926 31927 28
25542 31926 31928 28
25543 31926 31929 28
25544 31926 31930 28
25545 31931 31932 28
25546 31931 31933 28
25547 31931 31934 28
25548 31931 31935 28
25549 31936 31937 28
25550 31936 31938 28
25551 31936 31939 28
25552 31936 31940 28
25553 31941 31942 28
25554 31941 31943 28
25555 31941 31944 28
25556 31941 31945 28
25557 31946 31947 28
25558 31946 31948 28
25559 31946 31949 28
25560 31946 31950 28
25561 31951 31952 28
25562 31951 31953 28
25563 31951 31954 28
25564 31951 31955 28
25565 31956 31957 28
25566 31956 31958 28
25567 31956 31959 28
25568 31956 31960 28
25569 31961 31962 28
25570 31961 31963 28
25571 31961 31964 28
25572 31961 31965 28
25573 31966 31967 28
25574 31966 31968 28
25575 31966 31969 28
25576 31966 31970 28
25577 31971 31972 28
25578 31971 31973 28
25579 31971 31974 28
25580 31971 31975 28
25581 31976 31977 28
25582 31976 31978 28
25583 31976 31979 28
25584 31976 31980 28
25585 31981 31982 28
25586 31981 31983 28
25587 31981 31984 28
25588 31981 31985 28
25589 31986 31987 28
25590 31986 31988 28
25591 31986 31989 28
25592 31986 31990 28
25593 31991 31992 28
25594 31991 31993 28
25595 31991 31994 28
25596 31991 31995 28
25597 31996 31997 28
25598 31996 31998 28
25599 31996 31999 28
25600 31996 32000 28
25601 32001 32002 28
25602 32001 32003 28
25603 32001 32004 28
25604 32001 32005 28
25605 32006 32007 28
25606 32006 32008 28
25607 32006 32009 28
25608 32006 32010 28
25609 32011 32012 28
25610 32011 32013 28
25611 32011 32014 28
25612 32011 32015 28
25613 32016 32017 28
25614 32016 32018 28
25615 32016 32019 28
25616 32016 32020 28
25617 32021 32022 28
25618 32021 32023 28
25619 32021 32024 28
25620 32021 32025 28
25621 32026 32027 28
25622 32026 32028 28
25623 32026 32029 28
25624 32026 32030 28
25625 32031 32032 28
25626 32031 32033 28
25627 32031 32034 28
25628 32031 32035 28
25629 32036 32037 28
25630 32036 32038 28
25631 32036 32039 28
25632 32036 32040 28
25633 32041 32042 28
25634 32041 32043 28
25635 32041 32044 28
25636 32041 32045 28
25637 32046 32047 28
25638 32046 32048 28
25639 32046 32049 28
25640 32046 32050 28
25641 32051 32052 28
25642 32051 32053 28
25643 32051 32054 28
25644 32051 32055 28
25645 32056 32057 28
25646 32056 32058 28
25647 32056 32059 28
25648 32056 32060 28
25649 32061 32062 28
25650 32061 32063 28
25651 32061 32064 28
25652 32061 32065 28
25653 32066 32067 28
25654 32066 32068 28
25655 32066 32069 28
25656 32066 32070 28
25657 32071 32072 28
25658 32071 32073 28
25659 32071 32074 28
25660 32071 32075 28
25661 32076 32077 28
25662 32076 32078 28
25663 32076 32079 28
25664 32076 32080 28
25665 32081 32082 28
25666 32081 32083 28
25667 32081 32084 28
25668 32081 32085 28
25669 32086 32087 28
25670 32086 32088 28
25671 32086 32089 28
25672 32086 32090 28
25673 32091 32092 28
25674 32091 32093 28
25675 32091 32094 28
25676 32091 32095 28
25677 32096 32097 28
25678 32096 32098 28
25679 32096 32099 28
25680 32096 32100 28
25681 32101 32102 28
25682 32101 32103 28
25683 32101 32104 28
25684 32101 32105 28
25685 32106 32107 28
25686 32106 32108 28
25687 32106 32109 28
25688 32106 32110 28
25689 32111 32112 28
25690 32111 32113 28
25691 32111 32114 28
25692 32111 32115 28
25693 32116 32117 28
25694 32116 32118 28
25695 32116 32119 28
25696 32116 32120 28
25697 32121 32122 28
25698 32121 32123 28
25699 32121 32124 28
25700 32121 32125 28
25701 32126 32127 28
25702 32126 32128 28
25703 32126 32129 28
25704 32126 32130 28
25705 32131 32132 28
25706 32131 32133 28
25707 32131 32134 28
25708 32131 32135 28
25709 32136 32137 28
25710 32136 32138 28
25711 32136 32139 28
25712 32136 32140 28
25713 32141 32142 28
25714 32141 32143 28
25715 32141 32144 28
25716 32141 32145 28
25717 32146 32147 28
25718 32146 32148 28
25719 32146 32149 28
25720 32146 32150 28
25721 32151 32152 28
25722 32151 32153 28
25723 32151 32154 28
25724 32151 32155 28
25725 32156 32157 28
25726 32156 32158 28
25727 32156 32159 28
25728 32156 32160 28
25729 32161 32162 28
25730 32161 32163 28
25731 32161 32164 28
25732 32161 32165 28
25733 32166 32167 28
25734 32166 32168 28
25735 32166 32169 28
25736 32166 32170 28
25737 32171 32172 28
25738 32171 32173 28
25739 32171 32174 28
25740 32171 32175 28
25741 32176 32177 28
25742 32176 32178 28
25743 32176 32179 28
25744 32176 32180 28
25745 32181 32182 28
25746 32181 32183 28
25747 32181 32184 28
25748 32181 32185 28
25749 32186 32187 28
25750 32186 32188 28
25751 32186 32189 28
25752 32186 32190 28
25753 32191 32192 28
25754 32191 32193 28
25755 32191 32194 28
25756 32191 32195 28
25757 32196 32197 28
25758 32196 32198 28
25759 32196 32199 28
25760 32196 32200 28
25761 32201 32202 28
25762 32201 32203 28
25763 32201 32204 28
25764 32201 32205 28
25765 32206 32207 28
25766 32206 32208 28
25767 32206 32209 28
25768 32206 32210 28
25769 32211 32212 28
25770 32211 32213 28
25771 32211 32214 28
25772 32211 32215 28
25773 32216 32217 28
25774 32216 32218 28
25775 32216 32219 28
25776 32216 32220 28
25777 32221 32222 28
25778 32221 32223 28
25779 32221 32224 28
25780 32221 32225 28
25781 32226 32227 28
25782 32226 32228 28
25783 32226 32229 28
25784 32226 32230 28
25785 32231 32232 28
25786 32231 32233 28
25787 32231 32234 28
25788 32231 32235 28
25789 32236 32237 28
25790 32236 32238 28
25791 32236 32239 28
25792 32236 32240 28
25793 32241 32242 28
25794 32241 32243 28
25795 32241 32244 28
25796 32241 32245 28
25797 32246 32247 28
25798 32246 32248 28
25799 32246 32249 28
25800 32246 32250 28
25801 32251 32252 28
25802 32251 32253 28
25803 32251 32254 28
25804 32251 32255 28
25805 32256 32257 28
25806 32256 32258 28
25807 32256 32259 28
25808 32256 32260 28
25809 32261 32262 28
25810 32261 32263 28
25811 32261 32264 28
25812 32261 32265 28
25813 32266 32267 28
25814 32266 32268 28
25815 32266 32269 28
25816 32266 32270 28
25817 32271 32272 28
25818 32271 32273 28
25819 32271 32274 28
25820 32271 32275 28
25821 32276 32277 28
25822 32276 32278 28
25823 32276 32279 28
25824 32276 32280 28
25825 32281 32282 28
25826 32281 32283 28
25827 32281 32284 28
25828 32281 32285 28
25829 32286 32287 28
25830 32286 32288 28
25831 32286 32289 28
25832 32286 32290 28
25833 32291 32292 28
25834 32291 32293 28
25835 32291 32294 28
25836 32291 32295 28
25837 32296 32297 28
25838 32296 32298 28
25839 32296 32299 28
25840 32296 32300 28
25841 32301 32302 28
25842 32301 32303 28
25843 32301 32304 28
25844 32301 32305 28
25845 32306 32307 28
25846 32306 32308 28
25847 32306 32309 28
25848 32306 32310 28
25849 32311 32312 28
25850 32311 32313 28
25851 32311 32314 28
25852 32311 32315 28
25853 32316 32317 28
25854 32316 32318 28
25855 32316 32319 28
25856 32316 32320 28
25857 32321 32322 28
25858 32321 32323 28
25859 32321 32324 28
25860 32321 32325 28
25861 32326 32327 28
25862 32326 32328 28
25863 32326 32329 28
25864 32326 32330 28
25865 32331 32332 28
25866 32331 32333 28
25867 32331 32334 28
25868 32331 32335 28
25869 32336 32337 28
25870 32336 32338 28
25871 32336 32339 28
25872 32336 32340 28
25873 32341 32342 28
25874 32341 32343 28
25875 32341 32344 28
25876 32341 32345 28
25877 32346 32347 28
25878 32346 32348 28
25879 32346 32349 28
25880 32346 32350 28
25881 32351 32352 28
25882 32351 32353 28
25883 32351 32354 28
25884 32351 32355 28
25885 32356 32357 28
25886 32356 32358 28
25887 32356 32359 28
25888 32356 32360 28
25889 32361 32362 28
25890 32361 32363 28
25891 32361 32364 28
25892 32361 32365 28
25893 32366 32367 28
25894 32366 32368 28
25895 32366 32369 28
25896 32366 32370 28
25897 32371 32372 28
25898 32371 32373 28
25899 32371 32374 28
25900 32371 32375 28
25901 32376 32377 28
25902 32376 32378 28
25903 32376 32379 28
25904 32376 32380 28
25905 32381 32382 28
25906 32381 32383 28
25907 32381 32384 28
25908 32381 32385 28
25909 32386 32387 28
25910 32386 32388 28
25911 32386 32389 28
25912 32386 32390 28
25913 32391 32392 28
25914 32391 32393 28
25915 32391 32394 28
25916 32391 32395 28
25917 32396 32397 28
25918 32396 32398 28
25919 32396 32399 28
25920 32396 32400 28
25921 32401 32402 28
25922 32401 32403 28
25923 32401 32404 28
25924 32401 32405 28
25925 32406 32407 28
25926 32406 32408 28
25927 32406 32409 28
25928 32406 32410 28
25929 32411 32412 28
25930 32411 32413 28
25931 32411 32414 28
25932 32411 32415 28
25933 32416 32417 28
25934 32416 32418 28
25935 32416 32419 28
25936 32416 32420 28
25937 32421 32422 28
25938 32421 32423 28
25939 32421 32424 28
25940 32421 32425 28
25941 32426 32427 28
25942 32426 32428 28
25943 32426 32429 28
25944 32426 32430 28
25945 32431 32432 28
25946 32431 32433 28
25947 32431 32434 28
25948 32431 32435 28
25949 32436 32437 28
25950 32436 32438 28
25951 32436 32439 28
25952 32436 32440 28
25953 32441 32442 28
25954 32441 32443 28
25955 32441 32444 28
25956 32441 32445 28
25957 32446 32447 28
25958 32446 32448 28
25959 32446 32449 28
25960 32446 32450 28
25961 32451 32452 28
25962 32451 32453 28
25963 32451 32454 28
25964 32451 32455 28
25965 32456 32457 28
25966 32456 32458 28
25967 32456 32459 28
25968 32456 32460 28
25969 32461 32462 28
25970 32461 32463 28
25971 32461 32464 28
25972 32461 32465 28
25973 32466 32467 28
25974 32466 32468 28
25975 32466 32469 28
25976 32466 32470 28
25977 32471 32472 28
25978 32471 32473 28
25979 32471 32474 28
25980 32471 32475 28
25981 32476 32477 28
25982 32476 32478 28
25983 32476 32479 28
25984 32476 32480 28
25985 32481 32482 28
25986 32481 32483 28
25987 32481 32484 28
25988 32481 32485 28
25989 32486 32487 28
25990 32486 32488 28
25991 32486 32489 28
25992 32486 32490 28
25993 32491 32492 28
25994 32491 32493 28
25995 32491 32494 28
25996 32491 32495 28
25997 32496 32497 28
25998 32496 32498 28
25999 32496 32499 28
26000 32496 32500 28
26001 32501 32502 28
26002 32501 32503 28
26003 32501 32504 28
26004 32501 32505 28
26005 32506 32507 28
26006 32506 32508 28
26007 32506 32509 28
26008 32506 32510 28
26009 32511 32512 28
26010 32511 32513 28
26011 32511 32514 28
26012 32511 32515 28
26013 32516 32517 28
26014 32516 32518 28
26015 32516 32519 28
26016 32516 32520 28
26017 32521 32522 28
26018 32521 32523 28
26019 32521 32524 28
26020 32521 32525 28
26021 32526 32527 28
26022 32526 32528 28
26023 32526 32529 28
26024 32526 32530 28
26025 32531 32532 28
26026 32531 32533 28
26027 32531 32534 28
26028 32531 32535 28
26029 32536 32537 28
26030 32536 32538 28
26031 32536 32539 28
26032 32536 32540 28
26033 32541 32542 28
26034 32541 32543 28
26035 32541 32544 28
26036 32541 32545 28
26037 32546 32547 28
26038 32546 32548 28
26039 32546 32549 28
26040 32546 32550 28
26041 32551 32552 28
26042 32551 32553 28
26043 32551 32554 28
26044 32551 32555 28
26045 32556 32557 28
26046 32556 32558 28
26047 32556 32559 28
26048 32556 32560 28
26049 32561 32562 28
26050 32561 32563 28
26051 32561 32564 28
26052 32561 32565 28
26053 32566 32567 28
26054 32566 32568 28
26055 32566 32569 28
26056 32566 32570 28
26057 32571 32572 28
26058 32571 32573 28
26059 32571 32574 28
26060 32571 32575 28
26061 32576 32577 28
26062 32576 32578 28
26063 32576 32579 28
26064 32576 32580 28
26065 32581 32582 28
26066 32581 32583 28
26067 32581 32584 28
26068 32581 32585 28
26069 32586 32587 28
26070 32586 32588 28
26071 32586 32589 28
26072 32586 32590 28
26073 32591 32592 28
26074 32591 32593 28
26075 32591 32594 28
26076 32591 32595 28
26077 32596 32597 28
26078 32596 32598 28
26079 32596 32599 28
26080 32596 32600 28
26081 32601 32602 28
26082 32601 32603 28
26083 32601 32604 28
26084 32601 32605 28
26085 32606 32607 28
26086 32606 32608 28
26087 32606 32609 28
26088 32606 32610 28
26089 32611 32612 28
26090 32611 32613 28
26091 32611 32614 28
26092 32611 32615 28
26093 32616 32617 28
26094 32616 32618 28
26095 32616 32619 28
26096 32616 32620 28
26097 32621 32622 28
26098 32621 32623 28
26099 32621 32624 28
26100 32621 32625 28
26101 32626 32627 28
26102 32626 32628 28
26103 32626 32629 28
26104 32626 32630 28
26105 32631 32632 28
26106 32631 32633 28
26107 32631 32634 28
26108 32631 32635 28
26109 32636 32637 28
26110 32636 32638 28
26111 32636 32639 28
26112 32636 32640 28
26113 32641 32642 28
26114 32641 32643 28
26115 32641 32644 28
26116 32641 32645 28
26117 32646 32647 28
26118 32646 32648 28
26119 32646 32649 28
26120 32646 32650 28
26121 32651 32652 28
26122 32651 32653 28
26123 32651 32654 28
26124 32651 32655 28
26125 32656 32657 28
26126 32656 32658 28
26127 32656 32659 28
26128 32656 32660 28
26129 32661 32662 28
26130 32661 32663 28
26131 32661 32664 28
26132 32661 32665 28
26133 32666 32667 28
26134 32666 32668 28
26135 32666 32669 28
26136 32666 32670 28
26137 32671 32672 28
26138 32671 32673 28
26139 32671 32674 28
26140 32671 32675 28
26141 32676 32677 28
26142 32676 32678 28
26143 32676 32679 28
26144 32676 32680 28
26145 32681 32682 28
26146 32681 32683 28
26147 32681 32684 28
26148 32681 32685 28
26149 32686 32687 28
26150 32686 32688 28
26151 32686 32689 28
26152 32686 32690 28
26153 32691 32692 28
26154 32691 32693 28
26155 32691 32694 28
26156 32691 32695 28
26157 32696 32697 28
26158 32696 32698 28
26159 32696 32699 28
26160 32696 32700 28
26161 32701 32702 28
26162 32701 32703 28
26163 32701 32704 28
26164 32701 32705 28
26165 32706 32707 28
26166 32706 32708 28
26167 32706 32709 28
26168 32706 32710 28
26169 32711 32712 28
26170 32711 32713 28
26171 32711 32714 28
26172 32711 32715 28
26173 32716 32717 28
26174 32716 32718 28
26175 32716 32719 28
26176 32716 32720 28
26177 32721 32722 28
26178 32721 32723 28
26179 32721 32724 28
26180 32721 32725 28
26181 32726 32727 28
26182 32726 32728 28
26183 32726 32729 28
26184 32726 32730 28
26185 32731 32732 28
26186 32731 32733 28
26187 32731 32734 28
26188 32731 32735 28
26189 32736 32737 28
26190 32736 32738 28
26191 32736 32739 28
26192 32736 32740 28
26193 32741 32742 28
26194 32741 32743 28
26195 32741 32744 28
26196 32741 32745 28
26197 32746 32747 28
26198 32746 32748 28
26199 32746 32749 28
26200 32746 32750 28
26201 32751 32752 28
26202 32751 32753 28
26203 32751 32754 28
26204 32751 32755 28
26205 32756 32757 28
26206 32756 32758 28
26207 32756 32759 28
26208 32756 32760 28
26209 32761 32762 28
26210 32761 32763 28
26211 32761 32764 28
26212 32761 32765 28
26213 32766 32767 28
26214 32766 32768 28
26215 32766 32769 28
26216 32766 32770 28
26217 32771 32772 28
26218 32771 32773 28
26219 32771 32774 28
26220 32771 32775 28
26221 32776 32777 28
26222 32776 32778 28
26223 32776 32779 28
26224 32776 32780 28
26225 32781 32782 28
26226 32781 32783 28
26227 32781 32784 28
26228 32781 32785 28
26229 32786 32787 28
26230 32786 32788 28
26231 32786 32789 28
26232 32786 32790 28
26233 32791 32792 28
26234 32791 32793 28
26235 32791 32794 28
26236 32791 32795 28
26237 32796 32797 28
26238 32796 32798 28
26239 32796 32799 28
26240 32796 32800 28
26241 32801 32802 28
26242 32801 32803 28
26243 32801 32804 28
26244 32801 32805 28
26245 32806 32807 28
26246 32806 32808 28
26247 32806 32809 28
26248 32806 32810 28
26249 32811 32812 28
26250 32811 32813 28
26251 32811 32814 28
26252 32811 32815 28
26253 32816 32817 28
26254 32816 32818 28
26255 32816 32819 28
26256 32816 32820 28
26257 32821 32822 28
26258 32821 32823 28
26259 32821 32824 28
26260 32821 32825 28
26261 32826 32827 28
26262 32826 32828 28
26263 32826 32829 28
26264 32826 32830 28
26265 32831 32832 28
26266 32831 32833 28
26267 32831 32834 28
26268 32831 32835 28
26269 32836 32837 28
26270 32836 32838 28
26271 32836 32839 28
26272 32836 32840 28
26273 32841 32842 28
26274 32841 32843 28
26275 32841 32844 28
26276 32841 32845 28
26277 32846 32847 28
26278 32846 32848 28
26279 32846 32849 28
26280 32846 32850 28
26281 32851 32852 28
26282 32851 32853 28
26283 32851 32854 28
26284 32851 32855 28
26285 32856 32857 28
26286 32856 32858 28
26287 32856 32859 28
26288 32856 32860 28
26289 32861 32862 28
26290 32861 32863 28
26291 32861 32864 28
26292 32861 32865 28
26293 32866 32867 28
26294 32866 32868 28
26295 32866 32869 28
26296 32866 32870 28
26297 32871 32872 28
26298 32871 32873 28
26299 32871 32874 28
26300 32871 32875 28
26301 32876 32877 28
26302 32876 32878 28
26303 32876 32879 28
26304 32876 32880 28
26305 32881 32882 28
26306 32881 32883 28
26307 32881 32884 28
26308 32881 32885 28
26309 32886 32887 28
26310 32886 32888 28
26311 32886 32889 28
26312 32886 32890 28
26313 32891 32892 28
26314 32891 32893 28
26315 32891 32894 28
26316 32891 32895 28
26317 32896 32897 28
26318 32896 32898 28
26319 32896 32899 28
26320 32896 32900 28
26321 32901 32902 28
26322 32901 32903 28
26323 32901 32904 28
26324 32901 32905 28
26325 32906 32907 28
26326 32906 32908 28
26327 32906 32909 28
26328 32906 32910 28
26329 32911 32912 28
26330 32911 32913 28
26331 32911 32914 28
26332 32911 32915 28
26333 32916 32917 28
26334 32916 32918 28
26335 32916 32919 28
26336 32916 32920 28
26337 32921 32922 28
26338 32921 32923 28
26339 32921 32924 28
26340 32921 32925 28
26341 32926 32927 28
26342 32926 32928 28
26343 32926 32929 28
26344 32926 32930 28
26345 32931 32932 28
26346 32931 32933 28
26347 32931 32934 28
26348 32931 32935 28
26349 32936 32937 28
26350 32936 32938 28
26351 32936 32939 28
26352 32936 32940 28
26353 32941 32942 28
26354 32941 32943 28
26355 32941 32944 28
26356 32941 32945 28
26357 32946 32947 28
26358 32946 32948 28
26359 32946 32949 28
26360 32946 32950 28
26361 32951 32952 28
26362 32951 32953 28
26363 32951 32954 28
26364 32951 32955 28
26365 32956 32957 28
26366 32956 32958 28
26367 32956 32959 28
26368 32956 32960 28
26369 32961 32962 28
26370 32961 32963 28
26371 32961 32964 28
26372 32961 32965 28
26373 32966 32967 28
26374 32966 32968 28
26375 32966 32969 28
26376 32966 32970 28
26377 32971 32972 28
26378 32971 32973 28
26379 32971 32974 28
26380 32971 32975 28
26381 32976 32977 28
26382 32976 32978 28
26383 32976 32979 28
26384 32976 32980 28
26385 32981 32982 28
26386 32981 32983 28
26387 32981 32984 28
26388 32981 32985 28
26389 32986 32987 28
26390 32986 32988 28
26391 32986 32989 28
26392 32986 32990 28
26393 32991 32992 28
26394 32991 32993 28
26395 32991 32994 28
26396 32991 32995 28
26397 32996 32997 28
26398 32996 32998 28
26399 32996 32999 28
26400 32996 33000 28
26401 33001 33002 28
26402 33001 33003 28
26403 33001 33004 28
26404 33001 33005 28
26405 33006 33007 28
26406 33006 33008 28
26407 33006 33009 28
26408 33006 33010 28
26409 33011 33012 28
26410 33011 33013 28
26411 33011 33014 28
26412 33011 33015 28
26413 33016 33017 28
26414 33016 33018 28
26415 33016 33019 28
26416 33016 33020 28
26417 33021 33022 28
26418 33021 33023 28
26419 33021 33024 28
26420 33021 33025 28
26421 33026 33027 28
26422 33026 33028 28
26423 33026 33029 28
26424 33026 33030 28
26425 33031 33032 28
26426 33031 33033 28
26427 33031 33034 28
26428 33031 33035 28
26429 33036 33037 28
26430 33036 33038 28
26431 33036 33039 28
26432 33036 33040 28
26433 33041 33042 28
26434 33041 33043 28
26435 33041 33044 28
26436 33041 33045 28
26437 33046 33047 28
26438 33046 33048 28
26439 33046 33049 28
26440 33046 33050 28
26441 33051 33052 28
26442 33051 33053 28
26443 33051 33054 28
26444 33051 33055 28
26445 33056 33057 28
26446 33056 33058 28
26447 33056 33059 28
26448 33056 33060 28
26449 33061 33062 28
26450 33061 33063 28
26451 33061 33064 28
26452 33061 33065 28
26453 33066 33067 28
26454 33066 33068 28
26455 33066 33069 28
26456 33066 33070 28
26457 33071 33072 28
26458 33071 33073 28
26459 33071 33074 28
26460 33071 33075 28
26461 33076 33077 28
26462 33076 33078 28
26463 33076 33079 28
26464 33076 33080 28
26465 33081 33082 28
26466 33081 33083 28
26467 33081 33084 28
26468 33081 33085 28
26469 33086 33087 28
26470 33086 33088 28
26471 33086 33089 28
26472 33086 33090 28
26473 33091 33092 28
26474 33091 33093 28
26475 33091 33094 28
26476 33091 33095 28
26477 33096 33097 28
26478 33096 33098 28
26479 33096 33099 28
26480 33096 33100 28
26481 33101 33102 28
26482 33101 33103 28
26483 33101 33104 28
26484 33101 33105 28
26485 33106 33107 28
26486 33106 33108 28
26487 33106 33109 28
26488 33106 33110 28
26489 33111 33112 28
26490 33111 33113 28
26491 33111 33114 28
26492 33111 33115 28
26493 33116 33117 28
26494 33116 33118 28
26495 33116 33119 28
26496 33116 33120 28
26497 33121 33122 28
26498 33121 33123 28
26499 33121 33124 28
26500 33121 33125 28
26501 33126 33127 28
26502 33126 33128 28
26503 33126 33129 28
26504 33126 33130 28
26505 33131 33132 28
26506 33131 33133 28
26507 33131 33134 28
26508 33131 33135 28
26509 33136 33137 28
26510 33136 33138 28
26511 33136 33139 28
26512 33136 33140 28
26513 33141 33142 28
26514 33141 33143 28
26515 33141 33144 28
26516 33141 33145 28
26517 33146 33147 28
26518 33146 33148 28
26519 33146 33149 28
26520 33146 33150 28
26521 33151 33152 28
26522 33151 33153 28
26523 33151 33154 28
26524 33151 33155 28
26525 33156 33157 28
26526 33156 33158 28
26527 33156 33159 28
26528 33156 33160 28
26529 33161 33162 28
26530 33161 33163 28
26531 33161 33164 28
26532 33161 33165 28
26533 33166 33167 28
26534 33166 33168 28
26535 33166 33169 28
26536 33166 33170 28
26537 33171 33172 28
26538 33171 33173 28
26539 33171 33174 28
26540 33171 33175 28
26541 33176 33177 28
26542 33176 33178 28
26543 33176 33179 28
26544 33176 33180 28
26545 33181 33182 28
26546 33181 33183 28
26547 33181 33184 28
26548 33181 33185 28
26549 33186 33187 28
26550 33186 33188 28
26551 33186 33189 28
26552 33186 33190 28
26553 33191 33192 28
26554 33191 33193 28
26555 33191 33194 28
26556 33191 33195 28
26557 33196 33197 28
26558 33196 33198 28
26559 33196 33199 28
26560 33196 33200 28
26561 33201 33202 28
26562 33201 33203 28
26563 33201 33204 28
26564 33201 33205 28
26565 33206 33207 28
26566 33206 33208 28
26567 33206 33209 28
26568 33206 33210 28
26569 33211 33212 28
26570 33211 33213 28
26571 33211 33214 28
26572 33211 33215 28
26573 33216 33217 28
26574 33216 33218 28
26575 33216 33219 28
26576 33216 33220 28
26577 33221 33222 28
26578 33221 33223 28
26579 33221 33224 28
26580 33221 33225 28
26581 33226 33227 28
26582 33226 33228 28
26583 33226 33229 28
26584 33226 33230 28
26585 33231 33232 28
26586 33231 33233 28
26587 33231 33234 28
26588 33231 33235 28
26589 33236 33237 28
26590 33236 33238 28
26591 33236 33239 28
26592 33236 33240 28
26593 33241 33242 28
26594 33241 33243 28
26595 33241 33244 28
26596 33241 33245 28
26597 33246 33247 28
26598 33246 33248 28
26599 33246 33249 28
26600 33246 33250 28
26601 33251 33252 28
26602 33251 33253 28
26603 33251 33254 28
26604 33251 33255 28
26605 33256 33257 28
26606 33256 33258 28
26607 33256 33259 28
26608 33256 33260 28
26609 33261 33262 28
26610 33261 33263 28
26611 33261 33264 28
26612 33261 33265 28
26613 33266 33267 28
26614 33266 33268 28
26615 33266 33269 28
26616 33266 33270 28
26617 33271 33272 28
26618 33271 33273 28
26619 33271 33274 28
26620 33271 33275 28
26621 33276 33277 28
26622 33276 33278 28
26623 33276 33279 28
26624 33276 33280 28
26625 33281 33282 28
26626 33281 33283 28
26627 33281 33284 28
26628 33281 33285 28
26629 33286 33287 28
26630 33286 33288 28
26631 33286 33289 28
26632 33286 33290 28
26633 33291 33292 28
26634 33291 33293 28
26635 33291 33294 28
26636 33291 33295 28
26637 33296 33297 28
26638 33296 33298 28
26639 33296 33299 28
26640 33296 33300 28
26641 33301 33302 28
26642 33301 33303 28
26643 33301 33304 28
26644 33301 33305 28
26645 33306 33307 28
26646 33306 33308 28
26647 33306 33309 28
26648 33306 33310 28
26649 33311 33312 28
26650 33311 33313 28
26651 33311 33314 28
26652 33311 33315 28
26653 33316 33317 28
26654 33316 33318 28
26655 33316 33319 28
26656 33316 33320 28
26657 33321 33322 28
26658 33321 33323 28
26659 33321 33324 28
26660 33321 33325 28
26661 33326 33327 28
26662 33326 33328 28
26663 33326 33329 28
26664 33326 33330 28
26665 33331 33332 28
26666 33331 33333 28
26667 33331 33334 28
26668 33331 33335 28
26669 33336 33337 28
26670 33336 33338 28
26671 33336 33339 28
26672 33336 33340 28
26673 33341 33342 28
26674 33341 33343 28
26675 33341 33344 28
26676 33341 33345 28
26677 33346 33347 28
26678 33346 33348 28
26679 33346 33349 28
26680 33346 33350 28
26681 33351 33352 28
26682 33351 33353 28
26683 33351 33354 28
26684 33351 33355 28
26685 33356 33357 28
26686 33356 33358 28
26687 33356 33359 28
26688 33356 33360 28
26689 33361 33362 28
26690 33361 33363 28
26691 33361 33364 28
26692 33361 33365 28
26693 33366 33367 28
26694 33366 33368 28
26695 33366 33369 28
26696 33366 33370 28
26697 33371 33372 28
26698 33371 33373 28
26699 33371 33374 28
26700 33371 33375 28
26701 33376 33377 28
26702 33376 33378 28
26703 33376 33379 28
26704 33376 33380 28
26705 33381 33382 28
26706 33381 33383 28
26707 33381 33384 28
26708 33381 33385 28
26709 33386 33387 28
26710 33386 33388 28
26711 33386 33389 28
26712 33386 33390 28
26713 33391 33392 28
26714 33391 33393 28
26715 33391 33394 28
26716 33391 33395 28
26717 33396 33397 28
26718 33396 33398 28
26719 33396 33399 28
26720 33396 33400 28
26721 33401 33402 28
26722 33401 33403 28
26723 33401 33404 28
26724 33401 33405 28
26725 33406 33407 28
26726 33406 33408 28
26727 33406 33409 28
26728 33406 33410 28
26729 33411 33412 28
26730 33411 33413 28
26731 33411 33414 28
26732 33411 33415 28
26733 33416 33417 28
26734 33416 33418 28
26735 33416 33419 28
26736 33416 33420 28
26737 33421 33422 28
26738 33421 33423 28
26739 33421 33424 28
26740 33421 33425 28
26741 33426 33427 28
26742 33426 33428 28
26743 33426 33429 28
26744 33426 33430 28
26745 33431 33432 28
26746 33431 33433 28
26747 33431 33434 28
26748 33431 33435 28
26749 33436 33437 28
26750 33436 33438 28
26751 33436 33439 28
26752 33436 33440 28
26753 33441 33442 28
26754 33441 33443 28
26755 33441 33444 28
26756 33441 33445 28
26757 33446 33447 28
26758 33446 33448 28
26759 33446 33449 28
26760 33446 33450 28
26761 33451 33452 28
26762 33451 33453 28
26763 33451 33454 28
26764 33451 33455 28
26765 33456 33457 28
26766 33456 33458 28
26767 33456 33459 28
26768 33456 33460 28
26769 33461 33462 28
26770 33461 33463 28
26771 33461 33464 28
26772 33461 33465 28
26773 33466 33467 28
26774 33466 33468 28
26775 33466 33469 28
26776 33466 33470 28
26777 33471 33472 28
26778 33471 33473 28
26779 33471 33474 28
26780 33471 33475 28
26781 33476 33477 28
26782 33476 33478 28
26783 33476 33479 28
26784 33476 33480 28
26785 33481 33482 28
26786 33481 33483 28
26787 33481 33484 28
26788 33481 33485 28
26789 33486 33487 28
26790 33486 33488 28
26791 33486 33489 28
26792 33486 33490 28
26793 33491 33492 28
26794 33491 33493 28
26795 33491 33494 28
26796 33491 33495 28
26797 33496 33497 28
26798 33496 33498 28
26799 33496 33499 28
26800 33496 33500 28
26801 33501 33502 28
26802 33501 33503 28
26803 33501 33504 28
26804 33501 33505 28
26805 33506 33507 28
26806 33506 33508 28
26807 33506 33509 28
26808 33506 33510 28
26809 33511 33512 28
26810 33511 33513 28
26811 33511 33514 28
26812 33511 33515 28
26813 33516 33517 28
26814 33516 33518 28
26815 33516 33519 28
26816 33516 33520 28
26817 33521 33522 28
26818 33521 33523 28
26819 33521 33524 28
26820 33521 33525 28
26821 33526 33527 28
26822 33526 33528 28
26823 33526 33529 28
26824 33526 33530 28
26825 33531 33532 28
26826 33531 33533 28
26827 33531 33534 28
26828 33531 33535 28
26829 33536 33537 28
26830 33536 33538 28
26831 33536 33539 28
26832 33536 33540 28
26833 33541 33542 28
26834 33541 33543 28
26835 33541 33544 28
26836 33541 33545 28
26837 33546 33547 28
26838 33546 33548 28
26839 33546 33549 28
26840 33546 33550 28
26841 33551 33552 28
26842 33551 33553 28
26843 33551 33554 28
26844 33551 33555 28
26845 33556 33557 28
26846 33556 33558 28
26847 33556 33559 28
26848 33556 33560 28
26849 33561 33562 28
26850 33561 33563 28
26851 33561 33564 28
26852 33561 33565 28
26853 33566 33567 28
26854 33566 33568 28
26855 33566 33569 28
26856 33566 33570 28
26857 33571 33572 28
26858 33571 33573 28
26859 33571 33574 28
26860 33571 33575 28
26861 33576 33577 28
26862 33576 33578 28
26863 33576 33579 28
26864 33576 33580 28
26865 33581 33582 28
26866 33581 33583 28
26867 33581 33584 28
26868 33581 33585 28
26869 33586 33587 28
26870 33586 33588 28
26871 33586 33589 28
26872 33586 33590 28
26873 33591 33592 28
26874 33591 33593 28
26875 33591 33594 28
26876 33591 33595 28
26877 33596 33597 28
26878 33596 33598 28
26879 33596 33599 28
26880 33596 33600 28
26881 33601 33602 28
26882 33601 33603 28
26883 33601 33604 28
26884 33601 33605 28
26885 33606 33607 28
26886 33606 33608 28
26887 33606 33609 28
26888 33606 33610 28
26889 33611 33612 28
26890 33611 33613 28
26891 33611 33614 28
26892 33611 33615 28
26893 33616 33617 28
26894 33616 33618 28
26895 33616 33619 28
26896 33616 33620 28
26897 33621 33622 28
26898 33621 33623 28
26899 33621 33624 28
26900 33621 33625 28
26901 33626 33627 28
26902 33626 33628 28
26903 33626 33629 28
26904 33626 33630 28
26905 33631 33632 28
26906 33631 33633 28
26907 33631 33634 28
26908 33631 33635 28
26909 33636 33637 28
26910 33636 33638 28
26911 33636 33639 28
26912 33636 33640 28
26913 33641 33642 28
26914 33641 33643 28
26915 33641 33644 28
26916 33641 33645 28
26917 33646 33647 28
26918 33646 33648 28
26919 33646 33649 28
26920 33646 33650 28
26921 33651 33652 28
26922 33651 33653 28
26923 33651 33654 28
26924 33651 33655 28
26925 33656 33657 28
26926 33656 33658 28
26927 33656 33659 28
26928 33656 33660 28
26929 33661 33662 28
26930 33661 33663 28
26931 33661 33664 28
26932 33661 33665 28
26933 33666 33667 28
26934 33666 33668 28
26935 33666 33669 28
26936 33666 33670 28
26937 33671 33672 28
26938 33671 33673 28
26939 33671 33674 28
26940 33671 33675 28
26941 33676 33677 28
26942 33676 33678 28
26943 33676 33679 28
26944 33676 33680 28
26945 33681 33682 28
26946 33681 33683 28
26947 33681 33684 28
26948 33681 33685 28
26949 33686 33687 28
26950 33686 33688 28
26951 33686 33689 28
26952 33686 33690 28
26953 33691 33692 28
26954 33691 33693 28
26955 33691 33694 28
26956 33691 33695 28
26957 33696 33697 28
26958 33696 33698 28
26959 33696 33699 28
26960 33696 33700 28
26961 33701 33702 28
26962 33701 33703 28
26963 33701 33704 28
26964 33701 33705 28
26965 33706 33707 28
26966 33706 33708 28
26967 33706 33709 28
26968 33706 33710 28
26969 33711 33712 28
26970 33711 33713 28
26971 33711 33714 28
26972 33711 33715 28
26973 33716 33717 28
26974 33716 33718 28
26975 33716 33719 28
26976 33716 33720 28
26977 33721 33722 28
26978 33721 33723 28
26979 33721 33724 28
26980 33721 33725 28
26981 33726 33727 28
26982 33726 33728 28
26983 33726 33729 28
26984 33726 33730 28
26985 33731 33732 28
26986 33731 33733 28
26987 33731 33734 28
26988 33731 33735 28
26989 33736 33737 28
26990 33736 33738 28
26991 33736 33739 28
26992 33736 33740 28
26993 33741 33742 28
26994 33741 33743 28
26995 33741 33744 28
26996 33741 33745 28
26997 33746 33747 28
26998 33746 33748 28
26999 33746 33749 28
27000 33746 33750 28
27001 33751 33752 28
27002 33751 33753 28
27003 33751 33754 28
27004 33751 33755 28
27005 33756 33757 28
27006 33756 33758 28
27007 33756 33759 28
27008 33756 33760 28
27009 33761 33762 28
27010 33761 33763 28
27011 33761 33764 28
27012 33761 33765 28
27013 33766 33767 28
27014 33766 33768 28
27015 33766 33769 28
27016 33766 33770 28
27017 33771 33772 28
27018 33771 33773 28
27019 33771 33774 28
27020 33771 33775 28
27021 33776 33777 28
27022 33776 33778 28
27023 33776 33779 28
27024 33776 33780 28
27025 33781 33782 28
27026 33781 33783 28
27027 33781 33784 28
27028 33781 33785 28
27029 33786 33787 28
27030 33786 33788 28
27031 33786 33789 28
27032 33786 33790 28
27033 33791 33792 28
27034 33791 33793 28
27035 33791 33794 28
27036 33791 33795 28
27037 33796 33797 28
27038 33796 33798 28
27039 33796 33799 28
27040 33796 33800 28
27041 33801 33802 28
27042 33801 33803 28
27043 33801 33804 28
27044 33801 33805 28
27045 33806 33807 28
27046 33806 33808 28
27047 33806 33809 28
27048 33806 33810 28
27049 33811 33812 28
27050 33811 33813 28
27051 33811 33814 28
27052 33811 33815 28
27053 33816 33817 28
27054 33816 33818 28
27055 33816 33819 28
27056 33816 33820 28
27057 33821 33822 28
27058 33821 33823 28
27059 33821 33824 28
27060 33821 33825 28
27061 33826 33827 28
27062 33826 33828 28
27063 33826 33829 28
27064 33826 33830 28
27065 33831 33832 28
27066 33831 33833 28
27067 33831 33834 28
27068 33831 33835 28
27069 33836 33837 28
27070 33836 33838 28
27071 33836 33839 28
27072 33836 33840 28
27073 33841 33842 28
27074 33841 33843 28
27075 33841 33844 28
27076 33841 33845 28
27077 33846 33847 28
27078 33846 33848 28
27079 33846 33849 28
27080 33846 33850 28
27081 33851 33852 28
27082 33851 33853 28
27083 33851 33854 28
27084 33851 33855 28
27085 33856 33857 28
27086 33856 33858 28
27087 33856 33859 28
27088 33856 33860 28
27089 33861 33862 28
27090 33861 33863 28
27091 33861 33864 28
27092 33861 33865 28
27093 33866 33867 28
27094 33866 33868 28
27095 33866 33869 28
27096 33866 33870 28
27097 33871 33872 28
27098 33871 33873 28
27099 33871 33874 28
27100 33871 33875 28
27101 33876 33877 28
27102 33876 33878 28
27103 33876 33879 28
27104 33876 33880 28
27105 33881 33882 28
27106 33881 33883 28
27107 33881 33884 28
27108 33881 33885 28
27109 33886 33887 28
27110 33886 33888 28
27111 33886 33889 28
27112 33886 33890 28
27113 33891 33892 28
27114 33891 33893 28
27115 33891 33894 28
27116 33891 33895 28
27117 33896 33897 28
27118 33896 33898 28
27119 33896 33899 28
27120 33896 33900 28
27121 33901 33902 28
27122 33901 33903 28
27123 33901 33904 28
27124 33901 33905 28
27125 33906 33907 28
27126 33906 33908 28
27127 33906 33909 28
27128 33906 33910 28
27129 33911 33912 28
27130 33911 33913 28
27131 33911 33914 28
27132 33911 33915 28
27133 33916 33917 28
27134 33916 33918 28
27135 33916 33919 28
27136 33916 33920 28
27137 33921 33922 28
27138 33921 33923 28
27139 33921 33924 28
27140 33921 33925 28
27141 33926 33927 28
27142 33926 33928 28
27143 33926 33929 28
27144 33926 33930 28
27145 33931 33932 28
27146 33931 33933 28
27147 33931 33934 28
27148 33931 33935 28
27149 33936 33937 28
27150 33936 33938 28
27151 33936 33939 28
27152 33936 33940 28
27153 33941 33942 28
27154 33941 33943 28
27155 33941 33944 28
27156 33941 33945 28
27157 33946 33947 28
27158 33946 33948 28
27159 33946 33949 28
27160 33946 33950 28
27161 33951 33952 28
27162 33951 33953 28
27163 33951 33954 28
27164 33951 33955 28
27165 33956 33957 28
27166 33956 33958 28
27167 33956 33959 28
27168 33956 33960 28
27169 33961 33962 28
27170 33961 33963 28
27171 33961 33964 28
27172 33961 33965 28
27173 33966 33967 28
27174 33966 33968 28
27175 33966 33969 28
27176 33966 33970 28
27177 33971 33972 28
27178 33971 33973 28
27179 33971 33974 28
27180 33971 33975 28
27181 33976 33977 28
27182 33976 33978 28
27183 33976 33979 28
27184 33976 33980 28
27185 33981 33982 28
27186 33981 33983 28
27187 33981 33984 28
27188 33981 33985 28
27189 33986 33987 28
27190 33986 33988 28
27191 33986 33989 28
27192 33986 33990 28
27193 33991 33992 28
27194 33991 33993 28
27195 33991 33994 28
27196 33991 33995 28
27197 33996 33997 28
27198 33996 33998 28
27199 33996 33999 28
27200 33996 34000 28
27201 34001 34002 28
27202 34001 34003 28
27203 34001 34004 28
27204 34001 34005 28
27205 34006 34007 28
27206 34006 34008 28
27207 34006 34009 28
27208 34006 34010 28
27209 34011 34012 28
27210 34011 34013 28
27211 34011 34014 28
27212 34011 34015 28
27213 34016 34017 28
27214 34016 34018 28
27215 34016 34019 28
27216 34016 34020 28
27217 34021 34022 28
27218 34021 34023 28
27219 34021 34024 28
27220 34021 34025 28
27221 34026 34027 28
27222 34026 34028 28
27223 34026 34029 28
27224 34026 34030 28
27225 34031 34032 28
27226 34031 34033 28
27227 34031 34034 28
27228 34031 34035 28
27229 34036 34037 28
27230 34036 34038 28
27231 34036 34039 28
27232 34036 34040 28
27233 34041 34042 28
27234 34041 34043 28
27235 34041 34044 28
27236 34041 34045 28
27237 34046 34047 28
27238 34046 34048 28
27239 34046 34049 28
27240 34046 34050 28
27241 34051 34052 28
27242 34051 34053 28
27243 34051 34054 28
27244 34051 34055 28
27245 34056 34057 28
27246 34056 34058 28
27247 34056 34059 28
27248 34056 34060 28
27249 34061 34062 28
27250 34061 34063 28
27251 34061 34064 28
27252 34061 34065 28
27253 34066 34067 28
27254 34066 34068 28
27255 34066 34069 28
27256 34066 34070 28
27257 34071 34072 28
27258 34071 34073 28
27259 34071 34074 28
27260 34071 34075 28
27261 34076 34077 28
27262 34076 34078 28
27263 34076 34079 28
27264 34076 34080 28
27265 34081 34082 28
27266 34081 34083 28
27267 34081 34084 28
27268 34081 34085 28
27269 34086 34087 28
27270 34086 34088 28
27271 34086 34089 28
27272 34086 34090 28
27273 34091 34092 28
27274 34091 34093 28
27275 34091 34094 28
27276 34091 34095 28
27277 34096 34097 28
27278 34096 34098 28
27279 34096 34099 28
27280 34096 34100 28
27281 34101 34102 28
27282 34101 34103 28
27283 34101 34104 28
27284 34101 34105 28
27285 34106 34107 28
27286 34106 34108 28
27287 34106 34109 28
27288 34106 34110 28
27289 34111 34112 28
27290 34111 34113 28
27291 34111 34114 28
27292 34111 34115 28
27293 34116 34117 28
27294 34116 34118 28
27295 34116 34119 28
27296 34116 34120 28
27297 34121 34122 28
27298 34121 34123 28
27299 34121 34124 28
27300 34121 34125 28
27301 34126 34127 28
27302 34126 34128 28
27303 34126 34129 28
27304 34126 34130 28
27305 34131 34132 28
27306 34131 34133 28
27307 34131 34134 28
27308 34131 34135 28
27309 34136 34137 28
27310 34136 34138 28
27311 34136 34139 28
27312 34136 34140 28
27313 34141 34142 28
27314 34141 34143 28
27315 34141 34144 28
27316 34141 34145 28
27317 34146 34147 28
27318 34146 34148 28
27319 34146 34149 28
27320 34146 34150 28
27321 34151 34152 28
27322 34151 34153 28
27323 34151 34154 28
27324 34151 34155 28
27325 34156 34157 28
27326 34156 34158 28
27327 34156 34159 28
27328 34156 34160 28
27329 34161 34162 28
27330 34161 34163 28
27331 34161 34164 28
27332 34161 34165 28
27333 34166 34167 28
27334 34166 34168 28
27335 34166 34169 28
27336 34166 34170 28
27337 34171 34172 28
27338 34171 34173 28
27339 34171 34174 28
27340 34171 34175 28
27341 34176 34177 28
27342 34176 34178 28
27343 34176 34179 28
27344 34176 34180 28
27345 34181 34182 28
27346 34181 34183 28
27347 34181 34184 28
27348 34181 34185 28
27349 34186 34187 28
27350 34186 34188 28
27351 34186 34189 28
27352 34186 34190 28
27353 34191 34192 28
27354 34191 34193 28
27355 34191 34194 28
27356 34191 34195 28
27357 34196 34197 28
27358 34196 34198 28
27359 34196 34199 28
27360 34196 34200 28
27361 34201 34202 28
27362 34201 34203 28
27363 34201 34204 28
27364 34201 34205 28
27365 34206 34207 28
27366 34206 34208 28
27367 34206 34209 28
27368 34206 34210 28
27369 34211 34212 28
27370 34211 34213 28
27371 34211 34214 28
27372 34211 34215 28
27373 34216 34217 28
27374 34216 34218 28
27375 34216 34219 28
27376 34216 34220 28
27377 34221 34222 28
27378 34221 34223 28
27379 34221 34224 28
27380 34221 34225 28
27381 34226 34227 28
27382 34226 34228 28
27383 34226 34229 28
27384 34226 34230 28
27385 34231 34232 28
27386 34231 34233 28
27387 34231 34234 28
27388 34231 34235 28
27389 34236 34237 28
27390 34236 34238 28
27391 34236 34239 28
27392 34236 34240 28
27393 34241 34242 28
27394 34241 34243 28
27395 34241 34244 28
27396 34241 34245 28
27397 34246 34247 28
27398 34246 34248 28
27399 34246 34249 28
27400 34246 34250 28
27401 34251 34252 28
27402 34251 34253 28
27403 34251 34254 28
27404 34251 34255 28
27405 34256 34257 28
27406 34256 34258 28
27407 34256 34259 28
27408 34256 34260 28
27409 34261 34262 28
27410 34261 34263 28
27411 34261 34264 28
27412 34261 34265 28
27413 34266 34267 28
27414 34266 34268 28
27415 34266 34269 28
27416 34266 34270 28
27417 34271 34272 28
27418 34271 34273 28
27419 34271 34274 28
27420 34271 34275 28
27421 34276 34277 28
27422 34276 34278 28
27423 34276 34279 28
27424 34276 34280 28
27425 34281 34282 28
27426 34281 34283 28
27427 34281 34284 28
27428 34281 34285 28
27429 34286 34287 28
27430 34286 34288 28
27431 34286 34289 28
27432 34286 34290 28
27433 34291 34292 28
27434 34291 34293 28
27435 34291 34294 28
27436 34291 34295 28
27437 34296 34297 28
27438 34296 34298 28
27439 34296 34299 28
27440 34296 34300 28
27441 34301 34302 28
27442 34301 34303 28
27443 34301 34304 28
27444 34301 34305 28
27445 34306 34307 28
27446 34306 34308 28
27447 34306 34309 28
27448 34306 34310 28
27449 34311 34312 28
27450 34311 34313 28
27451 34311 34314 28
27452 34311 34315 28
27453 34316 34317 28
27454 34316 34318 28
27455 34316 34319 28
27456 34316 34320 28
27457 34321 34322 28
27458 34321 34323 28
27459 34321 34324 28
27460 34321 34325 28
27461 34326 34327 28
27462 34326 34328 28
27463 34326 34329 28
27464 34326 34330 28
27465 34331 34332 28
27466 34331 34333 28
27467 34331 34334 28
27468 34331 34335 28
27469 34336 34337 28
27470 34336 34338 28
27471 34336 34339 28
27472 34336 34340 28
27473 34341 34342 28
27474 34341 34343 28
27475 34341 34344 28
27476 34341 34345 28
27477 34346 34347 28
27478 34346 34348 28
27479 34346 34349 28
27480 34346 34350 28
27481 34351 34352 28
27482 34351 34353 28
27483 34351 34354 28
27484 34351 34355 28
27485 34356 34357 28
27486 34356 34358 28
27487 34356 34359 28
27488 34356 34360 28
27489 34361 34362 28
27490 34361 34363 28
27491 34361 34364 28
27492 34361 34365 28
27493 34366 34367 28
27494 34366 34368 28
27495 34366 34369 28
27496 34366 34370 28
27497 34371 34372 28
27498 34371 34373 28
27499 34371 34374 28
27500 34371 34375 28
27501 34376 34377 28
27502 34376 34378 28
27503 34376 34379 28
27504 34376 34380 28
27505 34381 34382 28
27506 34381 34383 28
27507 34381 34384 28
27508 34381 34385 28
27509 34386 34387 28
27510 34386 34388 28
27511 34386 34389 28
27512 34386 34390 28
27513 34391 34392 28
27514 34391 34393 28
27515 34391 34394 28
27516 34391 34395 28
27517 34396 34397 28
27518 34396 34398 28
27519 34396 34399 28
27520 34396 34400 28
27521 34401 34402 28
27522 34401 34403 28
27523 34401 34404 28
27524 34401 34405 28
27525 34406 34407 28
27526 34406 34408 28
27527 34406 34409 28
27528 34406 34410 28
27529 34411 34412 28
27530 34411 34413 28
27531 34411 34414 28
27532 34411 34415 28
27533 34416 34417 28
27534 34416 34418 28
27535 34416 34419 28
27536 34416 34420 28
27537 34421 34422 28
27538 34421 34423 28
27539 34421 34424 28
27540 34421 34425 28
27541 34426 34427 28
27542 34426 34428 28
27543 34426 34429 28
27544 34426 34430 28
27545 34431 34432 28
27546 34431 34433 28
27547 34431 34434 28
27548 34431 34435 28
27549 34436 34437 28
27550 34436 34438 28
27551 34436 34439 28
27552 34436 34440 28
27553 34441 34442 28
27554 34441 34443 28
27555 34441 34444 28
27556 34441 34445 28
27557 34446 34447 28
27558 34446 34448 28
27559 34446 34449 28
27560 34446 34450 28
27561 34451 34452 28
27562 34451 34453 28
27563 34451 34454 28
27564 34451 34455 28
27565 34456 34457 28
27566 34456 34458 28
27567 34456 34459 28
27568 34456 34460 28
27569 34461 34462 28
27570 34461 34463 28
27571 34461 34464 28
27572 34461 34465 28
27573 34466 34467 28
27574 34466 34468 28
27575 34466 34469 28
27576 34466 34470 28
27577 34471 34472 28
27578 34471 34473 28
27579 34471 34474 28
27580 34471 34475 28
27581 34476 34477 28
27582 34476 34478 28
27583 34476 34479 28
27584 34476 34480 28
27585 34481 34482 28
27586 34481 34483 28
27587 34481 34484 28
27588 34481 34485 28
27589 34486 34487 28
27590 34486 34488 28
27591 34486 34489 28
27592 34486 34490 28
27593 34491 34492 28
27594 34491 34493 28
27595 34491 34494 28
27596 34491 34495 28
27597 34496 34497 28
27598 34496 34498 28
27599 34496 34499 28
27600 34496 34500 28
27601 34501 34502 28
27602 34501 34503 28
27603 34501 34504 28
27604 34501 34505 28
27605 34506 34507 28
27606 34506 34508 28
27607 34506 34509 28
27608 34506 34510 28
27609 34511 34512 28
27610 34511 34513 28
27611 34511 34514 28
27612 34511 34515 28
27613 34516 34517 28
27614 34516 34518 28
27615 34516 34519 28
27616 34516 34520 28
27617 34521 34522 28
27618 34521 34523 28
27619 34521 34524 28
27620 34521 34525 28
27621 34526 34527 28
27622 34526 34528 28
27623 34526 34529 28
27624 34526 34530 28
27625 34531 34532 28
27626 34531 34533 28
27627 34531 34534 28
27628 34531 34535 28
27629 34536 34537 28
27630 34536 34538 28
27631 34536 34539 28
27632 34536 34540 28
27633 34541 34542 28
27634 34541 34543 28
27635 34541 34544 28
27636 34541 34545 28
27637 34546 34547 28
27638 34546 34548 28
27639 34546 34549 28
27640 34546 34550 28
27641 34551 34552 28
27642 34551 34553 28
27643 34551 34554 28
27644 34551 34555 28
27645 34556 34557 28
27646 34556 34558 28
27647 34556 34559 28
27648 34556 34560 28
27649 34561 34562 28
27650 34561 34563 28
27651 34561 34564 28
27652 34561 34565 28
27653 34566 34567 28
27654 34566 34568 28
27655 34566 34569 28
27656 34566 34570 28
27657 34571 34572 28
27658 34571 34573 28
27659 34571 34574 28
27660 34571 34575 28
27661 34576 34577 28
27662 34576 34578 28
27663 34576 34579 28
27664 34576 34580 28
27665 34581 34582 28
27666 34581 34583 28
27667 34581 34584 28
27668 34581 34585 28
27669 34586 34587 28
27670 34586 34588 28
27671 34586 34589 28
27672 34586 34590 28
27673 34591 34592 28
27674 34591 34593 28
27675 34591 34594 28
27676 34591 34595 28
27677 34596 34597 28
27678 34596 34598 28
27679 34596 34599 28
27680 34596 34600 28
27681 34601 34602 28
27682 34601 34603 28
27683 34601 34604 28
27684 34601 34605 28
27685 34606 34607 28
27686 34606 34608 28
27687 34606 34609 28
27688 34606 34610 28
27689 34611 34612 28
27690 34611 34613 28
27691 34611 34614 28
27692 34611 34615 28
27693 34616 34617 28
27694 34616 34618 28
27695 34616 34619 28
27696 34616 34620 28
27697 34621 34622 28
27698 34621 34623 28
27699 34621 34624 28
27700 34621 34625 28
27701 34626 34627 28
27702 34626 34628 28
27703 34626 34629 28
27704 34626 34630 28
27705 34631 34632 28
27706 34631 34633 28
27707 34631 34634 28
27708 34631 34635 28
27709 34636 34637 28
27710 34636 34638 28
27711 34636 34639 28
27712 34636 34640 28
27713 34641 34642 28
27714 34641 34643 28
27715 34641 34644 28
27716 34641 34645 28
27717 34646 34647 28
27718 34646 34648 28
27719 34646 34649 28
27720 34646 34650 28
27721 34651 34652 28
27722 34651 34653 28
27723 34651 34654 28
27724 34651 34655 28
27725 34656 34657 28
27726 34656 34658 28
27727 34656 34659 28
27728 34656 34660 28
27729 34661 34662 28
27730 34661 34663 28
27731 34661 34664 28
27732 34661 34665 28
27733 34666 34667 28
27734 34666 34668 28
27735 34666 34669 28
27736 34666 34670 28
27737 34671 34672 28
27738 34671 34673 28
27739 34671 34674 28
27740 34671 34675 28
27741 34676 34677 28
27742 34676 34678 28
27743 34676 34679 28
27744 34676 34680 28
27745 34681 34682 28
27746 34681 34683 28
27747 34681 34684 28
27748 34681 34685 28
27749 34686 34687 28
27750 34686 34688 28
27751 34686 34689 28
27752 34686 34690 28
27753 34691 34692 28
27754 34691 34693 28
27755 34691 34694 28
27756 34691 34695 28
27757 34696 34697 28
27758 34696 34698 28
27759 34696 34699 28
27760 34696 34700 28
27761 34701 34702 28
27762 34701 34703 28
27763 34701 34704 28
27764 34701 34705 28
27765 34706 34707 28
27766 34706 34708 28
27767 34706 34709 28
27768 34706 34710 28
27769 34711 34712 28
27770 34711 34713 28
27771 34711 34714 28
27772 34711 34715 28
27773 34716 34717 28
27774 34716 34718 28
27775 34716 34719 28
27776 34716 34720 28
27777 34721 34722 28
27778 34721 34723 28
27779 34721 34724 28
27780 34721 34725 28
27781 34726 34727 28
27782 34726 34728 28
27783 34726 34729 28
27784 34726 34730 28
27785 34731 34732 28
27786 34731 34733 28
27787 34731 34734 28
27788 34731 34735 28
27789 34736 34737 28
27790 34736 34738 28
27791 34736 34739 28
27792 34736 34740 28
27793 34741 34742 28
27794 34741 34743 28
27795 34741 34744 28
27796 34741 34745 28
27797 34746 34747 28
27798 34746 34748 28
27799 34746 34749 28
27800 34746 34750 28
27801 34751 34752 28
27802 34751 34753 28
27803 34751 34754 28
27804 34751 34755 28
27805 34756 34757 28
27806 34756 34758 28
27807 34756 34759 28
27808 34756 34760 28
27809 34761 34762 28
27810 34761 34763 28
27811 34761 34764 28
27812 34761 34765 28
27813 34766 34767 28
27814 34766 34768 28
27815 34766 34769 28
27816 34766 34770 28
27817 34771 34772 28
27818 34771 34773 28
27819 34771 34774 28
27820 34771 34775 28
27821 34776 34777 28
27822 34776 34778 28
27823 34776 34779 28
27824 34776 34780 28
27825 34781 34782 28
27826 34781 34783 28
27827 34781 34784 28
27828 34781 34785 28
27829 34786 34787 28
27830 34786 34788 28
27831 34786 34789 28
27832 34786 34790 28
27833 34791 34792 28
27834 34791 34793 28
27835 34791 34794 28
27836 34791 34795 28
27837 34796 34797 28
27838 34796 34798 28
27839 34796 34799 28
27840 34796 34800 28
27841 34801 34802 28
27842 34801 34803 28
27843 34801 34804 28
27844 34801 34805 28
27845 34806 34807 28
27846 34806 34808 28
27847 34806 34809 28
27848 34806 34810 28
27849 34811 34812 28
27850 34811 34813 28
27851 34811 34814 28
27852 34811 34815 28
27853 34816 34817 28
27854 34816 34818 28
27855 34816 34819 28
27856 34816 34820 28
27857 34821 34822 28
27858 34821 34823 28
27859 34821 34824 28
27860 34821 34825 28
27861 34826 34827 28
27862 34826 34828 28
27863 34826 34829 28
27864 34826 34830 28
27865 34831 34832 28
27866 34831 34833 28
27867 34831 34834 28
27868 34831 34835 28
27869 34836 34837 28
27870 34836 34838 28
27871 34836 34839 28
27872 34836 34840 28
27873 34841 34842 28
27874 34841 34843 28
27875 34841 34844 28
27876 34841 34845 28
27877 34846 34847 28
27878 34846 34848 28
27879 34846 34849 28
27880 34846 34850 28
27881 34851 34852 28
27882 34851 34853 28
27883 34851 34854 28
27884 34851 34855 28
27885 34856 34857 28
27886 34856 34858 28
27887 34856 34859 28
27888 34856 34860 28
27889 34861 34862 28
27890 34861 34863 28
27891 34861 34864 28
27892 34861 34865 28
27893 34866 34867 28
27894 34866 34868 28
27895 34866 34869 28
27896 34866 34870 28
27897 34871 34872 28
27898 34871 34873 28
27899 34871 34874 28
27900 34871 34875 28
27901 34876 34877 28
27902 34876 34878 28
27903 34876 34879 28
27904 34876 34880 28
27905 34881 34882 28
27906 34881 34883 28
27907 34881 34884 28
27908 34881 34885 28
27909 34886 34887 28
27910 34886 34888 28
27911 34886 34889 28
27912 34886 34890 28
27913 34891 34892 28
27914 34891 34893 28
27915 34891 34894 28
27916 34891 34895 28
27917 34896 34897 28
27918 34896 34898 28
27919 34896 34899 28
27920 34896 34900 28
27921 34901 34902 28
27922 34901 34903 28
27923 34901 34904 28
27924 34901 34905 28
27925 34906 34907 28
27926 34906 34908 28
27927 34906 34909 28
27928 34906 34910 28
27929 34911 34912 28
27930 34911 34913 28
27931 34911 34914 28
27932 34911 34915 28
27933 34916 34917 28
27934 34916 34918 28
27935 34916 34919 28
27936 34916 34920 28
27937 34921 34922 28
27938 34921 34923 28
27939 34921 34924 28
27940 34921 34925 28
27941 34926 34927 28
27942 34926 34928 28
27943 34926 34929 28
27944 34926 34930 28
27945 34931 34932 28
27946 34931 34933 28
27947 34931 34934 28
27948 34931 34935 28
27949 34936 34937 28
27950 34936 34938 28
27951 34936 34939 28
27952 34936 34940 28
27953 34941 34942 28
27954 34941 34943 28
27955 34941 34944 28
27956 34941 34945 28
27957 34946 34947 28
27958 34946 34948 28
27959 34946 34949 28
27960 34946 34950 28
27961 34951 34952 28
27962 34951 34953 28
27963 34951 34954 28
27964 34951 34955 28
27965 34956 34957 28
27966 34956 34958 28
27967 34956 34959 28
27968 34956 34960 28
27969 34961 34962 28
27970 34961 34963 28
27971 34961 34964 28
27972 34961 34965 28
27973 34966 34967 28
27974 34966 34968 28
27975 34966 34969 28
27976 34966 34970 28
27977 34971 34972 28
27978 34971 34973 28
27979 34971 34974 28
27980 34971 34975 28
27981 34976 34977 28
27982 34976 34978 28
27983 34976 34979 28
27984 34976 34980 28
27985 34981 34982 28
27986 34981 34983 28
27987 34981 34984 28
27988 34981 34985 28
27989 34986 34987 28
27990 34986 34988 28
27991 34986 34989 28
27992 34986 34990 28
27993 34991 34992 28
27994 34991 34993 28
27995 34991 34994 28
27996 34991 34995 28
27997 34996 34997 28
27998 34996 34998 28
27999 34996 34999 28
28000 34996 35000 28
28001 35001 35002 28
28002 35001 35003 28
28003 35001 35004 28
28004 35001 35005 28
28005 35006 35007 28
28006 35006 35008 28
28007 35006 35009 28
28008 35006 35010 28
28009 35011 35012 28
28010 35011 35013 28
28011 35011 35014 28
28012 35011 35015 28
28013 35016 35017 28
28014 35016 35018 28
28015 35016 35019 28
28016 35016 35020 28
28017 35021 35022 28
28018 35021 35023 28
28019 35021 35024 28
28020 35021 35025 28
28021 35026 35027 28
28022 35026 35028 28
28023 35026 35029 28
28024 35026 35030 28
28025 35031 35032 28
28026 35031 35033 28
28027 35031 35034 28
28028 35031 35035 28
28029 35036 35037 28
28030 35036 35038 28
28031 35036 35039 28
28032 35036 35040 28
28033 35041 35042 28
28034 35041 35043 28
28035 35041 35044 28
28036 35041 35045 28
28037 35046 35047 28
28038 35046 35048 28
28039 35046 35049 28
28040 35046 35050 28
28041 35051 35052 28
28042 35051 35053 28
28043 35051 35054 28
28044 35051 35055 28
28045 35056 35057 28
28046 35056 35058 28
28047 35056 35059 28
28048 35056 35060 28
28049 35061 35062 28
28050 35061 35063 28
28051 35061 35064 28
28052 35061 35065 28
28053 35066 35067 28
28054 35066 35068 28
28055 35066 35069 28
28056 35066 35070 28
28057 35071 35072 28
28058 35071 35073 28
28059 35071 35074 28
28060 35071 35075 28
28061 35076 35077 28
28062 35076 35078 28
28063 35076 35079 28
28064 35076 35080 28
28065 35081 35082 28
28066 35081 35083 28
28067 35081 35084 28
28068 35081 35085 28
28069 35086 35087 28
28070 35086 35088 28
28071 35086 35089 28
28072 35086 35090 28
28073 35091 35092 28
28074 35091 35093 28
28075 35091 35094 28
28076 35091 35095 28
28077 35096 35097 28
28078 35096 35098 28
28079 35096 35099 28
28080 35096 35100 28
28081 35101 35102 28
28082 35101 35103 28
28083 35101 35104 28
28084 35101 35105 28
28085 35106 35107 28
28086 35106 35108 28
28087 35106 35109 28
28088 35106 35110 28
28089 35111 35112 28
28090 35111 35113 28
28091 35111 35114 28
28092 35111 35115 28
28093 35116 35117 28
28094 35116 35118 28
28095 35116 35119 28
28096 35116 35120 28
28097 35121 35122 28
28098 35121 35123 28
28099 35121 35124 28
28100 35121 35125 28
28101 35126 35127 28
28102 35126 35128 28
28103 35126 35129 28
28104 35126 35130 28
28105 35131 35132 28
28106 35131 35133 28
28107 35131 35134 28
28108 35131 35135 28
28109 35136 35137 28
28110 35136 35138 28
28111 35136 35139 28
28112 35136 35140 28
28113 35141 35142 28
28114 35141 35143 28
28115 35141 35144 28
28116 35141 35145 28
28117 35146 35147 28
28118 35146 35148 28
28119 35146 35149 28
28120 35146 35150 28
28121 35151 35152 28
28122 35151 35153 28
28123 35151 35154 28
28124 35151 35155 28
28125 35156 35157 28
28126 35156 35158 28
28127 35156 35159 28
28128 35156 35160 28
28129 35161 35162 28
28130 35161 35163 28
28131 35161 35164 28
28132 35161 35165 28
28133 35166 35167 28
28134 35166 35168 28
28135 35166 35169 28
28136 35166 35170 28
28137 35171 35172 28
28138 35171 35173 28
28139 35171 35174 28
28140 35171 35175 28
28141 35176 35177 28
28142 35176 35178 28
28143 35176 35179 28
28144 35176 35180 28
28145 35181 35182 28
28146 35181 35183 28
28147 35181 35184 28
28148 35181 35185 28
28149 35186 35187 28
28150 35186 35188 28
28151 35186 35189 28
28152 35186 35190 28
28153 35191 35192 28
28154 35191 35193 28
28155 35191 35194 28
28156 35191 35195 28
28157 35196 35197 28
28158 35196 35198 28
28159 35196 35199 28
28160 35196 35200 28
28161 35201 35202 28
28162 35201 35203 28
28163 35201 35204 28
28164 35201 35205 28
28165 35206 35207 28
28166 35206 35208 28
28167 35206 35209 28
28168 35206 35210 28
28169 35211 35212 28
28170 35211 35213 28
28171 35211 35214 28
28172 35211 35215 28
28173 35216 35217 28
28174 35216 35218 28
28175 35216 35219 28
28176 35216 35220 28
28177 35221 35222 28
28178 35221 35223 28
28179 35221 35224 28
28180 35221 35225 28
28181 35226 35227 28
28182 35226 35228 28
28183 35226 35229 28
28184 35226 35230 28
28185 35231 35232 28
28186 35231 35233 28
28187 35231 35234 28
28188 35231 35235 28
28189 35236 35237 28
28190 35236 35238 28
28191 35236 35239 28
28192 35236 35240 28
28193 35241 35242 28
28194 35241 35243 28
28195 35241 35244 28
28196 35241 35245 28
28197 35246 35247 28
28198 35246 35248 28
28199 35246 35249 28
28200 35246 35250 28
28201 35251 35252 28
28202 35251 35253 28
28203 35251 35254 28
28204 35251 35255 28
28205 35256 35257 28
28206 35256 35258 28
28207 35256 35259 28
28208 35256 35260 28
28209 35261 35262 28
28210 35261 35263 28
28211 35261 35264 28
28212 35261 35265 28
28213 35266 35267 28
28214 35266 35268 28
28215 35266 35269 28
28216 35266 35270 28
28217 35271 35272 28
28218 35271 35273 28
28219 35271 35274 28
28220 35271 35275 28
28221 35276 35277 28
28222 35276 35278 28
28223 35276 35279 28
28224 35276 35280 28
28225 35281 35282 28
28226 35281 35283 28
28227 35281 35284 28
28228 35281 35285 28
28229 35286 35287 28
28230 35286 35288 28
28231 35286 35289 28
28232 35286 35290 28
28233 35291 35292 28
28234 35291 35293 28
28235 35291 35294 28
28236 35291 35295 28
28237 35296 35297 28
28238 35296 35298 28
28239 35296 35299 28
28240 35296 35300 28
28241 35301 35302 28
28242 35301 35303 28
28243 35301 35304 28
28244 35301 35305 28
28245 35306 35307 28
28246 35306 35308 28
28247 35306 35309 28
28248 35306 35310 28
28249 35311 35312 28
28250 35311 35313 28
28251 35311 35314 28
28252 35311 35315 28
28253 35316 35317 28
28254 35316 35318 28
28255 35316 35319 28
28256 35316 35320 28
28257 35321 35322 28
28258 35321 35323 28
28259 35321 35324 28
28260 35321 35325 28
28261 35326 35327 28
28262 35326 35328 28
28263 35326 35329 28
28264 35326 35330 28
28265 35331 35332 28
28266 35331 35333 28
28267 35331 35334 28
28268 35331 35335 28
28269 35336 35337 28
28270 35336 35338 28
28271 35336 35339 28
28272 35336 35340 28
28273 35341 35342 28
28274 35341 35343 28
28275 35341 35344 28
28276 35341 35345 28
28277 35346 35347 28
28278 35346 35348 28
28279 35346 35349 28
28280 35346 35350 28
28281 35351 35352 28
28282 35351 35353 28
28283 35351 35354 28
28284 35351 35355 28
28285 35356 35357 28
28286 35356 35358 28
28287 35356 35359 28
28288 35356 35360 28
28289 35361 35362 28
28290 35361 35363 28
28291 35361 35364 28
28292 35361 35365 28
28293 35366 35367 28
28294 35366 35368 28
28295 35366 35369 28
28296 35366 35370 28
28297 35371 35372 28
28298 35371 35373 28
28299 35371 35374 28
28300 35371 35375 28
28301 35376 35377 28
28302 35376 35378 28
28303 35376 35379 28
28304 35376 35380 28
28305 35381 35382 28
28306 35381 35383 28
28307 35381 35384 28
28308 35381 35385 28
28309 35386 35387 28
28310 35386 35388 28
28311 35386 35389 28
28312 35386 35390 28
28313 35391 35392 28
28314 35391 35393 28
28315 35391 35394 28
28316 35391 35395 28
28317 35396 35397 28
28318 35396 35398 28
28319 35396 35399 28
28320 35396 35400 28
28321 35401 35402 28
28322 35401 35403 28
28323 35401 35404 28
28324 35401 35405 28
28325 35406 35407 28
28326 35406 35408 28
28327 35406 35409 28
28328 35406 35410 28
28329 35411 35412 28
28330 35411 35413 28
28331 35411 35414 28
28332 35411 35415 28
28333 35416 35417 28
28334 35416 35418 28
28335 35416 35419 28
28336 35416 35420 28
28337 35421 35422 28
28338 35421 35423 28
28339 35421 35424 28
28340 35421 35425 28
28341 35426 35427 28
28342 35426 35428 28
28343 35426 35429 28
28344 35426 35430 28
28345 35431 35432 28
28346 35431 35433 28
28347 35431 35434 28
28348 35431 35435 28
28349 35436 35437 28
28350 35436 35438 28
28351 35436 35439 28
28352 35436 35440 28
28353 35441 35442 28
28354 35441 35443 28
28355 35441 35444 28
28356 35441 35445 28
28357 35446 35447 28
28358 35446 35448 28
28359 35446 35449 28
28360 35446 35450 28
28361 35451 35452 28
28362 35451 35453 28
28363 35451 35454 28
28364 35451 35455 28
28365 35456 35457 28
28366 35456 35458 28
28367 35456 35459 28
28368 35456 35460 28
28369 35461 35462 28
28370 35461 35463 28
28371 35461 35464 28
28372 35461 35465 28
28373 35466 35467 28
28374 35466 35468 28
28375 35466 35469 28
28376 35466 35470 28
28377 35471 35472 28
28378 35471 35473 28
28379 35471 35474 28
28380 35471 35475 28
28381 35476 35477 28
28382 35476 35478 28
28383 35476 35479 28
28384 35476 35480 28
28385 35481 35482 28
28386 35481 35483 28
28387 35481 35484 28
28388 35481 35485 28
28389 35486 35487 28
28390 35486 35488 28
28391 35486 35489 28
28392 35486 35490 28
28393 35491 35492 28
28394 35491 35493 28
28395 35491 35494 28
28396 35491 35495 28
28397 35496 35497 28
28398 35496 35498 28
28399 35496 35499 28
28400 35496 35500 28
28401 35501 35502 28
28402 35501 35503 28
28403 35501 35504 28
28404 35501 35505 28
28405 35506 35507 28
28406 35506 35508 28
28407 35506 35509 28
28408 35506 35510 28
28409 35511 35512 28
28410 35511 35513 28
28411 35511 35514 28
28412 35511 35515 28
28413 35516 35517 28
28414 35516 35518 28
28415 35516 35519 28
28416 35516 35520 28
28417 35521 35522 28
28418 35521 35523 28
28419 35521 35524 28
28420 35521 35525 28
28421 35526 35527 28
28422 35526 35528 28
28423 35526 35529 28
28424 35526 35530 28
28425 35531 35532 28
28426 35531 35533 28
28427 35531 35534 28
28428 35531 35535 28
28429 35536 35537 28
28430 35536 35538 28
28431 35536 35539 28
28432 35536 35540 28
28433 35541 35542 28
28434 35541 35543 28
28435 35541 35544 28
28436 35541 35545 28
28437 35546 35547 28
28438 35546 35548 28
28439 35546 35549 28
28440 35546 35550 28
28441 35551 35552 28
28442 35551 35553 28
28443 35551 35554 28
28444 35551 35555 28
28445 35556 35557 28
28446 35556 35558 28
28447 35556 35559 28
28448 35556 35560 28
28449 35561 35562 28
28450 35561 35563 28
28451 35561 35564 28
28452 35561 35565 28
28453 35566 35567 28
28454 35566 35568 28
28455 35566 35569 28
28456 35566 35570 28
28457 35571 35572 28
28458 35571 35573 28
28459 35571 35574 28
28460 35571 35575 28
28461 35576 35577 28
28462 35576 35578 28
28463 35576 35579 28
28464 35576 35580 28
28465 35581 35582 28
28466 35581 35583 28
28467 35581 35584 28
28468 35581 35585 28
28469 35586 35587 28
28470 35586 35588 28
28471 35586 35589 28
28472 35586 35590 28
28473 35591 35592 28
28474 35591 35593 28
28475 35591 35594 28
28476 35591 35595 28
28477 35596 35597 28
28478 35596 35598 28
28479 35596 35599 28
28480 35596 35600 28
28481 35601 35602 28
28482 35601 35603 28
28483 35601 35604 28
28484 35601 35605 28
28485 35606 35607 28
28486 35606 35608 28
28487 35606 35609 28
28488 35606 35610 28
28489 35611 35612 28
28490 35611 35613 28
28491 35611 35614 28
28492 35611 35615 28
28493 35616 35617 28
28494 35616 35618 28
28495 35616 35619 28
28496 35616 35620 28
28497 35621 35622 28
28498 35621 35623 28
28499 35621 35624 28
28500 35621 35625 28
28501 35626 35627 28
28502 35626 35628 28
28503 35626 35629 28
28504 35626 35630 28
28505 35631 35632 28
28506 35631 35633 28
28507 35631 35634 28
28508 35631 35635 28
28509 35636 35637 28
28510 35636 35638 28
28511 35636 35639 28
28512 35636 35640 28
28513 35641 35642 28
28514 35641 35643 28
28515 35641 35644 28
28516 35641 35645 28
28517 35646 35647 28
28518 35646 35648 28
28519 35646 35649 28
28520 35646 35650 28
28521 35651 35652 28
28522 35651 35653 28
28523 35651 35654 28
28524 35651 35655 28
28525 35656 35657 28
28526 35656 35658 28
28527 35656 35659 28
28528 35656 35660 28
28529 35661 35662 28
28530 35661 35663 28
28531 35661 35664 28
28532 35661 35665 28
28533 35666 35667 28
28534 35666 35668 28
28535 35666 35669 28
28536 35666 35670 28
28537 35671 35672 28
28538 35671 35673 28
28539 35671 35674 28
28540 35671 35675 28
28541 35676 35677 28
28542 35676 35678 28
28543 35676 35679 28
28544 35676 35680 28
28545 35681 35682 28
28546 35681 35683 28
28547 35681 35684 28
28548 35681 35685 28
28549 35686 35687 28
28550 35686 35688 28
28551 35686 35689 28
28552 35686 35690 28
28553 35691 35692 28
28554 35691 35693 28
28555 35691 35694 28
28556 35691 35695 28
28557 35696 35697 28
28558 35696 35698 28
28559 35696 35699 28
28560 35696 35700 28
28561 35701 35702 28
28562 35701 35703 28
28563 35701 35704 28
28564 35701 35705 28
28565 35706 35707 28
28566 35706 35708 28
28567 35706 35709 28
28568 35706 35710 28
28569 35711 35712 28
28570 35711 35713 28
28571 35711 35714 28
28572 35711 35715 28
28573 35716 35717 28
28574 35716 35718 28
28575 35716 35719 28
28576 35716 35720 28
28577 35721 35722 28
28578 35721 35723 28
28579 35721 35724 28
28580 35721 35725 28
28581 35726 35727 28
28582 35726 35728 28
28583 35726 35729 28
28584 35726 35730 28
28585 35731 35732 28
28586 35731 35733 28
28587 35731 35734 28
28588 35731 35735 28
28589 35736 35737 28
28590 35736 35738 28
28591 35736 35739 28
28592 35736 35740 28
28593 35741 35742 28
28594 35741 35743 28
28595 35741 35744 28
28596 35741 35745 28
28597 35746 35747 28
28598 35746 35748 28
28599 35746 35749 28
28600 35746 35750 28
28601 35751 35752 28
28602 35751 35753 28
28603 35751 35754 28
28604 35751 35755 28
28605 35756 35757 28
28606 35756 35758 28
28607 35756 35759 28
28608 35756 35760 28
28609 35761 35762 28
28610 35761 35763 28
28611 35761 35764 28
28612 35761 35765 28
28613 35766 35767 28
28614 35766 35768 28
28615 35766 35769 28
28616 35766 35770 28
28617 35771 35772 28
28618 35771 35773 28
28619 35771 35774 28
28620 35771 35775 28
28621 35776 35777 28
28622 35776 35778 28
28623 35776 35779 28
28624 35776 35780 28
28625 35781 35782 28
28626 35781 35783 28
28627 35781 35784 28
28628 35781 35785 28
28629 35786 35787 28
28630 35786 35788 28
28631 35786 35789 28
28632 35786 35790 28
28633 35791 35792 28
28634 35791 35793 28
28635 35791 35794 28
28636 35791 35795 28
28637 35796 35797 28
28638 35796 35798 28
28639 35796 35799 28
28640 35796 35800 28
28641 35801 35802 28
28642 35801 35803 28
28643 35801 35804 28
28644 35801 35805 28
28645 35806 35807 28
28646 35806 35808 28
28647 35806 35809 28
28648 35806 35810 28
28649 35811 35812 28
28650 35811 35813 28
28651 35811 35814 28
28652 35811 35815 28
28653 35816 35817 28
28654 35816 35818 28
28655 35816 35819 28
28656 35816 35820 28
28657 35821 35822 28
28658 35821 35823 28
28659 35821 35824 28
28660 35821 35825 28
28661 35826 35827 28
28662 35826 35828 28
28663 35826 35829 28
28664 35826 35830 28
28665 35831 35832 28
28666 35831 35833 28
28667 35831 35834 28
28668 35831 35835 28
28669 35836 35837 28
28670 35836 35838 28
28671 35836 35839 28
28672 35836 35840 28
28673 35841 35842 28
28674 35841 35843 28
28675 35841 35844 28
28676 35841 35845 28
28677 35846 35847 28
28678 35846 35848 28
28679 35846 35849 28
28680 35846 35850 28
28681 35851 35852 28
28682 35851 35853 28
28683 35851 35854 28
28684 35851 35855 28
28685 35856 35857 28
28686 35856 35858 28
28687 35856 35859 28
28688 35856 35860 28
28689 35861 35862 28
28690 35861 35863 28
28691 35861 35864 28
28692 35861 35865 28
28693 35866 35867 28
28694 35866 35868 28
28695 35866 35869 28
28696 35866 35870 28
28697 35871 35872 28
28698 35871 35873 28
28699 35871 35874 28
28700 35871 35875 28
28701 35876 35877 28
28702 35876 35878 28
28703 35876 35879 28
28704 35876 35880 28
28705 35881 35882 28
28706 35881 35883 28
28707 35881 35884 28
28708 35881 35885 28
28709 35886 35887 28
28710 35886 35888 28
28711 35886 35889 28
28712 35886 35890 28
28713 35891 35892 28
28714 35891 35893 28
28715 35891 35894 28
28716 35891 35895 28
28717 35896 35897 28
28718 35896 35898 28
28719 35896 35899 28
28720 35896 35900 28
28721 35901 35902 28
28722 35901 35903 28
28723 35901 35904 28
28724 35901 35905 28
28725 35906 35907 28
28726 35906 35908 28
28727 35906 35909 28
28728 35906 35910 28
28729 35911 35912 28
28730 35911 35913 28
28731 35911 35914 28
28732 35911 35915 28
28733 35916 35917 28
28734 35916 35918 28
28735 35916 35919 28
28736 35916 35920 28
28737 35921 35922 28
28738 35921 35923 28
28739 35921 35924 28
28740 35921 35925 28
28741 35926 35927 28
28742 35926 35928 28
28743 35926 35929 28
28744 35926 35930 28
28745 35931 35932 28
28746 35931 35933 28
28747 35931 35934 28
28748 35931 35935 28
28749 35936 35937 28
28750 35936 35938 28
28751 35936 35939 28
28752 35936 35940 28
28753 35941 35942 28
28754 35941 35943 28
28755 35941 35944 28
28756 35941 35945 28
28757 35946 35947 28
28758 35946 35948 28
28759 35946 35949 28
28760 35946 35950 28
28761 35951 35952 28
28762 35951 35953 28
28763 35951 35954 28
28764 35951 35955 28
28765 35956 35957 28
28766 35956 35958 28
28767 35956 35959 28
28768 35956 35960 28
28769 35961 35962 28
28770 35961 35963 28
28771 35961 35964 28
28772 35961 35965 28
28773 35966 35967 28
28774 35966 35968 28
28775 35966 35969 28
28776 35966 35970 28
28777 35971 35972 28
28778 35971 35973 28
28779 35971 35974 28
28780 35971 35975 28
28781 35976 35977 28
28782 35976 35978 28
28783 35976 35979 28
28784 35976 35980 28
28785 35981 35982 28
28786 35981 35983 28
28787 35981 35984 28
28788 35981 35985 28
28789 35986 35987 28
28790 35986 35988 28
28791 35986 35989 28
28792 35986 35990 28
28793 35991 35992 28
28794 35991 35993 28
28795 35991 35994 28
28796 35991 35995 28
28797 35996 35997 28
28798 35996 35998 28
28799 35996 35999 28
28800 35996 36000 28
28801 36001 36002 28
28802 36001 36003 28
28803 36001 36004 28
28804 36001 36005 28
28805 36006 36007 28
28806 36006 36008 28
28807 36006 36009 28
28808 36006 36010 28
28809 36011 36012 28
28810 36011 36013 28
28811 36011 36014 28
28812 36011 36015 28
28813 36016 36017 28
28814 36016 36018 28
28815 36016 36019 28
28816 36016 36020 28
28817 36021 36022 28
28818 36021 36023 28
28819 36021 36024 28
28820 36021 36025 28
28821 36026 36027 28
28822 36026 36028 28
28823 36026 36029 28
28824 36026 36030 28
28825 36031 36032 28
28826 36031 36033 28
28827 36031 36034 28
28828 36031 36035 28
28829 36036 36037 28
28830 36036 36038 28
28831 36036 36039 28
28832 36036 36040 28
28833 36041 36042 28
28834 36041 36043 28
28835 36041 36044 28
28836 36041 36045 28
28837 36046 36047 28
28838 36046 36048 28
28839 36046 36049 28
28840 36046 36050 28
28841 36051 36052 28
28842 36051 36053 28
28843 36051 36054 28
28844 36051 36055 28
28845 36056 36057 28
28846 36056 36058 28
28847 36056 36059 28
28848 36056 36060 28
28849 36061 36062 28
28850 36061 36063 28
28851 36061 36064 28
28852 36061 36065 28
28853 36066 36067 28
28854 36066 36068 28
28855 36066 36069 28
28856 36066 36070 28
28857 36071 36072 28
28858 36071 36073 28
28859 36071 36074 28
28860 36071 36075 28
28861 36076 36077 28
28862 36076 36078 28
28863 36076 36079 28
28864 36076 36080 28
28865 36081 36082 28
28866 36081 36083 28
28867 36081 36084 28
28868 36081 36085 28
28869 36086 36087 28
28870 36086 36088 28
28871 36086 36089 28
28872 36086 36090 28
28873 36091 36092 28
28874 36091 36093 28
28875 36091 36094 28
28876 36091 36095 28
28877 36096 36097 28
28878 36096 36098 28
28879 36096 36099 28
28880 36096 36100 28
28881 36101 36102 28
28882 36101 36103 28
28883 36101 36104 28
28884 36101 36105 28
28885 36106 36107 28
28886 36106 36108 28
28887 36106 36109 28
28888 36106 36110 28
28889 36111 36112 28
28890 36111 36113 28
28891 36111 36114 28
28892 36111 36115 28
28893 36116 36117 28
28894 36116 36118 28
28895 36116 36119 28
28896 36116 36120 28
28897 36121 36122 28
28898 36121 36123 28
28899 36121 36124 28
28900 36121 36125 28
28901 36126 36127 28
28902 36126 36128 28
28903 36126 36129 28
28904 36126 36130 28
28905 36131 36132 28
28906 36131 36133 28
28907 36131 36134 28
28908 36131 36135 28
28909 36136 36137 28
28910 36136 36138 28
28911 36136 36139 28
28912 36136 36140 28
28913 36141 36142 28
28914 36141 36143 28
28915 36141 36144 28
28916 36141 36145 28
28917 36146 36147 28
28918 36146 36148 28
28919 36146 36149 28
28920 36146 36150 28
28921 36151 36152 28
28922 36151 36153 28
28923 36151 36154 28
28924 36151 36155 28
28925 36156 36157 28
28926 36156 36158 28
28927 36156 36159 28
28928 36156 36160 28
28929 36161 36162 28
28930 36161 36163 28
28931 36161 36164 28
28932 36161 36165 28
28933 36166 36167 28
28934 36166 36168 28
28935 36166 36169 28
28936 36166 36170 28
28937 36171 36172 28
28938 36171 36173 28
28939 36171 36174 28
28940 36171 36175 28
28941 36176 36177 28
28942 36176 36178 28
28943 36176 36179 28
28944 36176 36180 28
28945 36181 36182 28
28946 36181 36183 28
28947 36181 36184 28
28948 36181 36185 28
28949 36186 36187 28
28950 36186 36188 28
28951 36186 36189 28
28952 36186 36190 28
28953 36191 36192 28
28954 36191 36193 28
28955 36191 36194 28
28956 36191 36195 28
28957 36196 36197 28
28958 36196 36198 28
28959 36196 36199 28
28960 36196 36200 28
28961 36201 36202 28
28962 36201 36203 28
28963 36201 36204 28
28964 36201 36205 28
28965 36206 36207 28
28966 36206 36208 28
28967 36206 36209 28
28968 36206 36210 28
28969 36211 36212 28
28970 36211 36213 28
28971 36211 36214 28
28972 36211 36215 28
28973 36216 36217 28
28974 36216 36218 28
28975 36216 36219 28
28976 36216 36220 28
28977 36221 36222 28
28978 36221 36223 28
28979 36221 36224 28
28980 36221 36225 28
28981 36226 36227 28
28982 36226 36228 28
28983 36226 36229 28
28984 36226 36230 28
28985 36231 36232 28
28986 36231 36233 28
28987 36231 36234 28
28988 36231 36235 28
28989 36236 36237 28
28990 36236 36238 28
28991 36236 36239 28
28992 36236 36240 28
28993 36241 36242 28
28994 36241 36243 28
28995 36241 36244 28
28996 36241 36245 28
28997 36246 36247 28
28998 36246 36248 28
28999 36246 36249 28
29000 36246 36250 28
29001 36251 36252 28
29002 36251 36253 28
29003 36251 36254 28
29004 36251 36255 28
29005 36256 36257 28
29006 36256 36258 28
29007 36256 36259 28
29008 36256 36260 28
29009 36261 36262 28
29010 36261 36263 28
29011 36261 36264 28
29012 36261 36265 28
29013 36266 36267 28
29014 36266 36268 28
29015 36266 36269 28
29016 36266 36270 28
29017 36271 36272 28
29018 36271 36273 28
29019 36271 36274 28
29020 36271 36275 28
29021 36276 36277 28
29022 36276 36278 28
29023 36276 36279 28
29024 36276 36280 28
29025 36281 36282 28
29026 36281 36283 28
29027 36281 36284 28
29028 36281 36285 28
29029 36286 36287 28
29030 36286 36288 28
29031 36286 36289 28
29032 36286 36290 28
29033 36291 36292 28
29034 36291 36293 28
29035 36291 36294 28
29036 36291 36295 28
29037 36296 36297 28
29038 36296 36298 28
29039 36296 36299 28
29040 36296 36300 28
29041 36301 36302 28
29042 36301 36303 28
29043 36301 36304 28
29044 36301 36305 28
29045 36306 36307 28
29046 36306 36308 28
29047 36306 36309 28
29048 36306 36310 28
29049 36311 36312 28
29050 36311 36313 28
29051 36311 36314 28
29052 36311 36315 28
29053 36316 36317 28
29054 36316 36318 28
29055 36316 36319 28
29056 36316 36320 28
29057 36321 36322 28
29058 36321 36323 28
29059 36321 36324 28
29060 36321 36325 28
29061 36326 36327 28
29062 36326 36328 28
29063 36326 36329 28
29064 36326 36330 28
29065 36331 36332 28
29066 36331 36333 28
29067 36331 36334 28
29068 36331 36335 28
29069 36336 36337 28
29070 36336 36338 28
29071 36336 36339 28
29072 36336 36340 28
29073 36341 36342 28
29074 36341 36343 28
29075 36341 36344 28
29076 36341 36345 28
29077 36346 36347 28
29078 36346 36348 28
29079 36346 36349 28
29080 36346 36350 28
29081 36351 36352 28
29082 36351 36353 28
29083 36351 36354 28
29084 36351 36355 28
29085 36356 36357 28
29086 36356 36358 28
29087 36356 36359 28
29088 36356 36360 28
29089 36361 36362 28
29090 36361 36363 28
29091 36361 36364 28
29092 36361 36365 28
29093 36366 36367 28
29094 36366 36368 28
29095 36366 36369 28
29096 36366 36370 28
29097 36371 36372 28
29098 36371 36373 28
29099 36371 36374 28
29100 36371 36375 28
29101 36376 36377 28
29102 36376 36378 28
29103 36376 36379 28
29104 36376 36380 28
29105 36381 36382 28
29106 36381 36383 28
29107 36381 36384 28
29108 36381 36385 28
29109 36386 36387 28
29110 36386 36388 28
29111 36386 36389 28
29112 36386 36390 28
29113 36391 36392 28
29114 36391 36393 28
29115 36391 36394 28
29116 36391 36395 28
29117 36396 36397 28
29118 36396 36398 28
29119 36396 36399 28
29120 36396 36400 28
29121 36401 36402 28
29122 36401 36403 28
29123 36401 36404 28
29124 36401 36405 28
29125 36406 36407 28
29126 36406 36408 28
29127 36406 36409 28
29128 36406 36410 28
29129 36411 36412 28
29130 36411 36413 28
29131 36411 36414 28
29132 36411 36415 28
29133 36416 36417 28
29134 36416 36418 28
29135 36416 36419 28
29136 36416 36420 28
29137 36421 36422 28
29138 36421 36423 28
29139 36421 36424 28
29140 36421 36425 28
29141 36426 36427 28
29142 36426 36428 28
29143 36426 36429 28
29144 36426 36430 28
29145 36431 36432 28
29146 36431 36433 28
29147 36431 36434 28
29148 36431 36435 28
29149 36436 36437 28
29150 36436 36438 28
29151 36436 36439 28
29152 36436 36440 28
29153 36441 36442 28
29154 36441 36443 28
29155 36441 36444 28
29156 36441 36445 28
29157 36446 36447 28
29158 36446 36448 28
29159 36446 36449 28
29160 36446 36450 28
29161 36451 36452 28
29162 36451 36453 28
29163 36451 36454 28
29164 36451 36455 28
29165 36456 36457 28
29166 36456 36458 28
29167 36456 36459 28
29168 36456 36460 28
29169 36461 36462 28
29170 36461 36463 28
29171 36461 36464 28
29172 36461 36465 28
29173 36466 36467 28
29174 36466 36468 28
29175 36466 36469 28
29176 36466 36470 28
29177 36471 36472 28
29178 36471 36473 28
29179 36471 36474 28
29180 36471 36475 28
29181 36476 36477 28
29182 36476 36478 28
29183 36476 36479 28
29184 36476 36480 28
29185 36481 36482 28
29186 36481 36483 28
29187 36481 36484 28
29188 36481 36485 28
29189 36486 36487 28
29190 36486 36488 28
29191 36486 36489 28
29192 36486 36490 28
29193 36491 36492 28
29194 36491 36493 28
29195 36491 36494 28
29196 36491 36495 28
29197 36496 36497 28
29198 36496 36498 28
29199 36496 36499 28
29200 36496 36500 28
29201 36501 36502 28
29202 36501 36503 28
29203 36501 36504 28
29204 36501 36505 28
29205 36506 36507 28
29206 36506 36508 28
29207 36506 36509 28
29208 36506 36510 28
29209 36511 36512 28
29210 36511 36513 28
29211 36511 36514 28
29212 36511 36515 28
29213 36516 36517 28
29214 36516 36518 28
29215 36516 36519 28
29216 36516 36520 28
29217 36521 36522 28
29218 36521 36523 28
29219 36521 36524 28
29220 36521 36525 28
29221 36526 36527 28
29222 36526 36528 28
29223 36526 36529 28
29224 36526 36530 28
29225 36531 36532 28
29226 36531 36533 28
29227 36531 36534 28
29228 36531 36535 28
29229 36536 36537 28
29230 36536 36538 28
29231 36536 36539 28
29232 36536 36540 28
29233 36541 36542 28
29234 36541 36543 28
29235 36541 36544 28
29236 36541 36545 28
29237 36546 36547 28
29238 36546 36548 28
29239 36546 36549 28
29240 36546 36550 28
29241 36551 36552 28
29242 36551 36553 28
29243 36551 36554 28
29244 36551 36555 28
29245 36556 36557 28
29246 36556 36558 28
29247 36556 36559 28
29248 36556 36560 28
29249 36561 36562 28
29250 36561 36563 28
29251 36561 36564 28
29252 36561 36565 28
29253 36566 36567 28
29254 36566 36568 28
29255 36566 36569 28
29256 36566 36570 28
29257 36571 36572 28
29258 36571 36573 28
29259 36571 36574 28
29260 36571 36575 28
29261 36576 36577 28
29262 36576 36578 28
29263 36576 36579 28
29264 36576 36580 28
29265 36581 36582 28
29266 36581 36583 28
29267 36581 36584 28
29268 36581 36585 28
29269 36586 36587 28
29270 36586 36588 28
29271 36586 36589 28
29272 36586 36590 28
29273 36591 36592 28
29274 36591 36593 28
29275 36591 36594 28
29276 36591 36595 28
29277 36596 36597 28
29278 36596 36598 28
29279 36596 36599 28
29280 36596 36600 28
29281 36601 36602 28
29282 36601 36603 28
29283 36601 36604 28
29284 36601 36605 28
29285 36606 36607 28
29286 36606 36608 28
29287 36606 36609 28
29288 36606 36610 28
29289 36611 36612 28
29290 36611 36613 28
29291 36611 36614 28
29292 36611 36615 28
29293 36616 36617 28
29294 36616 36618 28
29295 36616 36619 28
29296 36616 36620 28
29297 36621 36622 28
29298 36621 36623 28
29299 36621 36624 28
29300 36621 36625 28
29301 36626 36627 28
29302 36626 36628 28
29303 36626 36629 28
29304 36626 36630 28
29305 36631 36632 28
29306 36631 36633 28
29307 36631 36634 28
29308 36631 36635 28
29309 36636 36637 28
29310 36636 36638 28
29311 36636 36639 28
29312 36636 36640 28
29313 36641 36642 28
29314 36641 36643 28
29315 36641 36644 28
29316 36641 36645 28
29317 36646 36647 28
29318 36646 36648 28
29319 36646 36649 28
29320 36646 36650 28
29321 36651 36652 28
29322 36651 36653 28
29323 36651 36654 28
29324 36651 36655 28
29325 36656 36657 28
29326 36656 36658 28
29327 36656 36659 28
29328 36656 36660 28
29329 36661 36662 28
29330 36661 36663 28
29331 36661 36664 28
29332 36661 36665 28
29333 36666 36667 28
29334 36666 36668 28
29335 36666 36669 28
29336 36666 36670 28
29337 36671 36672 28
29338 36671 36673 28
29339 36671 36674 28
29340 36671 36675 28
29341 36676 36677 28
29342 36676 36678 28
29343 36676 36679 28
29344 36676 36680 28
29345 36681 36682 28
29346 36681 36683 28
29347 36681 36684 28
29348 36681 36685 28
29349 36686 36687 28
29350 36686 36688 28
29351 36686 36689 28
29352 36686 36690 28
29353 36691 36692 28
29354 36691 36693 28
29355 36691 36694 28
29356 36691 36695 28
29357 36696 36697 28
29358 36696 36698 28
29359 36696 36699 28
29360 36696 36700 28
29361 36701 36702 28
29362 36701 36703 28
29363 36701 36704 28
29364 36701 36705 28
29365 36706 36707 28
29366 36706 36708 28
29367 36706 36709 28
29368 36706 36710 28
29369 36711 36712 28
29370 36711 36713 28
29371 36711 36714 28
29372 36711 36715 28
29373 36716 36717 28
29374 36716 36718 28
29375 36716 36719 28
29376 36716 36720 28
29377 36721 36722 28
29378 36721 36723 28
29379 36721 36724 28
29380 36721 36725 28
29381 36726 36727 28
29382 36726 36728 28
29383 36726 36729 28
29384 36726 36730 28
29385 36731 36732 28
29386 36731 36733 28
29387 36731 36734 28
29388 36731 36735 28
29389 36736 36737 28
29390 36736 36738 28
29391 36736 36739 28
29392 36736 36740 28
29393 36741 36742 28
29394 36741 36743 28
29395 36741 36744 28
29396 36741 36745 28
29397 36746 36747 28
29398 36746 36748 28
29399 36746 36749 28
29400 36746 36750 28
29401 36751 36752 28
29402 36751 36753 28
29403 36751 36754 28
29404 36751 36755 28
29405 36756 36757 28
29406 36756 36758 28
29407 36756 36759 28
29408 36756 36760 28
29409 36761 36762 28
29410 36761 36763 28
29411 36761 36764 28
29412 36761 36765 28
29413 36766 36767 28
29414 36766 36768 28
29415 36766 36769 28
29416 36766 36770 28
29417 36771 36772 28
29418 36771 36773 28
29419 36771 36774 28
29420 36771 36775 28
29421 36776 36777 28
29422 36776 36778 28
29423 36776 36779 28
29424 36776 36780 28
29425 36781 36782 28
29426 36781 36783 28
29427 36781 36784 28
29428 36781 36785 28
29429 36786 36787 28
29430 36786 36788 28
29431 36786 36789 28
29432 36786 36790 28
29433 36791 36792 28
29434 36791 36793 28
29435 36791 36794 28
29436 36791 36795 28
29437 36796 36797 28
29438 36796 36798 28
29439 36796 36799 28
29440 36796 36800 28
29441 36801 36802 28
29442 36801 36803 28
29443 36801 36804 28
29444 36801 36805 28
29445 36806 36807 28
29446 36806 36808 28
29447 36806 36809 28
29448 36806 36810 28
29449 36811 36812 28
29450 36811 36813 28
29451 36811 36814 28
29452 36811 36815 28
29453 36816 36817 28
29454 36816 36818 28
29455 36816 36819 28
29456 36816 36820 28
29457 36821 36822 28
29458 36821 36823 28
29459 36821 36824 28
29460 36821 36825 28
29461 36826 36827 28
29462 36826 36828 28
29463 36826 36829 28
29464 36826 36830 28
29465 36831 36832 28
29466 36831 36833 28
29467 36831 36834 28
29468 36831 36835 28
29469 36836 36837 28
29470 36836 36838 28
29471 36836 36839 28
29472 36836 36840 28
29473 36841 36842 28
29474 36841 36843 28
29475 36841 36844 28
29476 36841 36845 28
29477 36846 36847 28
29478 36846 36848 28
29479 36846 36849 28
29480 36846 36850 28
29481 36851 36852 28
29482 36851 36853 28
29483 36851 36854 28
29484 36851 36855 28
29485 36856 36857 28
29486 36856 36858 28
29487 36856 36859 28
29488 36856 36860 28
29489 36861 36862 28
29490 36861 36863 28
29491 36861 36864 28
29492 36861 36865 28
29493 36866 36867 28
29494 36866 36868 28
29495 36866 36869 28
29496 36866 36870 28
29497 36871 36872 28
29498 36871 36873 28
29499 36871 36874 28
29500 36871 36875 28
29501 36876 36877 28
29502 36876 36878 28
29503 36876 36879 28
29504 36876 36880 28
29505 36881 36882 28
29506 36881 36883 28
29507 36881 36884 28
29508 36881 36885 28
29509 36886 36887 28
29510 36886 36888 28
29511 36886 36889 28
29512 36886 36890 28
29513 36891 36892 28
29514 36891 36893 28
29515 36891 36894 28
29516 36891 36895 28
29517 36896 36897 28
29518 36896 36898 28
29519 36896 36899 28
29520 36896 36900 28
29521 36901 36902 28
29522 36901 36903 28
29523 36901 36904 28
29524 36901 36905 28
29525 36906 36907 28
29526 36906 36908 28
29527 36906 36909 28
29528 36906 36910 28
29529 36911 36912 28
29530 36911 36913 28
29531 36911 36914 28
29532 36911 36915 28
29533 36916 36917 28
29534 36916 36918 28
29535 36916 36919 28
29536 36916 36920 28
29537 36921 36922 28
29538 36921 36923 28
29539 36921 36924 28
29540 36921 36925 28
29541 36926 36927 28
29542 36926 36928 28
29543 36926 36929 28
29544 36926 36930 28
29545 36931 36932 28
29546 36931 36933 28
29547 36931 36934 28
29548 36931 36935 28
29549 36936 36937 28
29550 36936 36938 28
29551 36936 36939 28
29552 36936 36940 28
29553 36941 36942 28
29554 36941 36943 28
29555 36941 36944 28
29556 36941 36945 28
29557 36946 36947 28
29558 36946 36948 28
29559 36946 36949 28
29560 36946 36950 28
29561 36951 36952 28
29562 36951 36953 28
29563 36951 36954 28
29564 36951 36955 28
29565 36956 36957 28
29566 36956 36958 28
29567 36956 36959 28
29568 36956 36960 28
29569 36961 36962 28
29570 36961 36963 28
29571 36961 36964 28
29572 36961 36965 28
29573 36966 36967 28
29574 36966 36968 28
29575 36966 36969 28
29576 36966 36970 28
29577 36971 36972 28
29578 36971 36973 28
29579 36971 36974 28
29580 36971 36975 28
29581 36976 36977 28
29582 36976 36978 28
29583 36976 36979 28
29584 36976 36980 28
29585 36981 36982 28
29586 36981 36983 28
29587 36981 36984 28
29588 36981 36985 28
29589 36986 36987 28
29590 36986 36988 28
29591 36986 36989 28
29592 36986 36990 28
29593 36991 36992 28
29594 36991 36993 28
29595 36991 36994 28
29596 36991 36995 28
29597 36996 36997 28
29598 36996 36998 28
29599 36996 36999 28
29600 36996 37000 28
29601 37001 37002 28
29602 37001 37003 28
29603 37001 37004 28
29604 37001 37005 28
29605 37006 37007 28
29606 37006 37008 28
29607 37006 37009 28
29608 37006 37010 28
29609 37011 37012 28
29610 37011 37013 28
29611 37011 37014 28
29612 37011 37015 28
29613 37016 37017 28
29614 37016 37018 28
29615 37016 37019 28
29616 37016 37020 28
29617 37021 37022 28
29618 37021 37023 28
29619 37021 37024 28
29620 37021 37025 28
29621 37026 37027 28
29622 37026 37028 28
29623 37026 37029 28
29624 37026 37030 28
29625 37031 37032 28
29626 37031 37033 28
29627 37031 37034 28
29628 37031 37035 28
29629 37036 37037 28
29630 37036 37038 28
29631 37036 37039 28
29632 37036 37040 28
29633 37041 37042 28
29634 37041 37043 28
29635 37041 37044 28
29636 37041 37045 28
29637 37046 37047 28
29638 37046 37048 28
29639 37046 37049 28
29640 37046 37050 28
29641 37051 37052 28
29642 37051 37053 28
29643 37051 37054 28
29644 37051 37055 28
29645 37056 37057 28
29646 37056 37058 28
29647 37056 37059 28
29648 37056 37060 28
29649 37061 37062 28
29650 37061 37063 28
29651 37061 37064 28
29652 37061 37065 28
29653 37066 37067 28
29654 37066 37068 28
29655 37066 37069 28
29656 37066 37070 28
29657 37071 37072 28
29658 37071 37073 28
29659 37071 37074 28
29660 37071 37075 28
29661 37076 37077 28
29662 37076 37078 28
29663 37076 37079 28
29664 37076 37080 28
29665 37081 37082 28
29666 37081 37083 28
29667 37081 37084 28
29668 37081 37085 28
29669 37086 37087 28
29670 37086 37088 28
29671 37086 37089 28
29672 37086 37090 28
29673 37091 37092 28
29674 37091 37093 28
29675 37091 37094 28
29676 37091 37095 28
29677 37096 37097 28
29678 37096 37098 28
29679 37096 37099 28
29680 37096 37100 28
29681 37101 37102 28
29682 37101 37103 28
29683 37101 37104 28
29684 37101 37105 28
29685 37106 37107 28
29686 37106 37108 28
29687 37106 37109 28
29688 37106 37110 28
29689 37111 37112 28
29690 37111 37113 28
29691 37111 37114 28
29692 37111 37115 28
29693 37116 37117 28
29694 37116 37118 28
29695 37116 37119 28
29696 37116 37120 28
29697 37121 37122 28
29698 37121 37123 28
29699 37121 37124 28
29700 37121 37125 28
29701 37126 37127 28
29702 37126 37128 28
29703 37126 37129 28
29704 37126 37130 28
29705 37131 37132 28
29706 37131 37133 28
29707 37131 37134 28
29708 37131 37135 28
29709 37136 37137 28
29710 37136 37138 28
29711 37136 37139 28
29712 37136 37140 28
29713 37141 37142 28
29714 37141 37143 28
29715 37141 37144 28
29716 37141 37145 28
29717 37146 37147 28
29718 37146 37148 28
29719 37146 37149 28
29720 37146 37150 28
29721 37151 37152 28
29722 37151 37153 28
29723 37151 37154 28
29724 37151 37155 28
29725 37156 37157 28
29726 37156 37158 28
29727 37156 37159 28
29728 37156 37160 28
29729 37161 37162 28
29730 37161 37163 28
29731 37161 37164 28
29732 37161 37165 28
29733 37166 37167 28
29734 37166 37168 28
29735 37166 37169 28
29736 37166 37170 28
29737 37171 37172 28
29738 37171 37173 28
29739 37171 37174 28
29740 37171 37175 28
29741 37176 37177 28
29742 37176 37178 28
29743 37176 37179 28
29744 37176 37180 28
29745 37181 37182 28
29746 37181 37183 28
29747 37181 37184 28
29748 37181 37185 28
29749 37186 37187 28
29750 37186 37188 28
29751 37186 37189 28
29752 37186 37190 28
29753 37191 37192 28
29754 37191 37193 28
29755 37191 37194 28
29756 37191 37195 28
29757 37196 37197 28
29758 37196 37198 28
29759 37196 37199 28
29760 37196 37200 28
29761 37201 37202 28
29762 37201 37203 28
29763 37201 37204 28
29764 37201 37205 28
29765 37206 37207 28
29766 37206 37208 28
29767 37206 37209 28
29768 37206 37210 28
29769 37211 37212 28
29770 37211 37213 28
29771 37211 37214 28
29772 37211 37215 28
29773 37216 37217 28
29774 37216 37218 28
29775 37216 37219 28
29776 37216 37220 28
29777 37221 37222 28
29778 37221 37223 28
29779 37221 37224 28
29780 37221 37225 28
29781 37226 37227 28
29782 37226 37228 28
29783 37226 37229 28
29784 37226 37230 28
29785 37231 37232 28
29786 37231 37233 28
29787 37231 37234 28
29788 37231 37235 28
29789 37236 37237 28
29790 37236 37238 28
29791 37236 37239 28
29792 37236 37240 28
29793 37241 37242 28
29794 37241 37243 28
29795 37241 37244 28
29796 37241 37245 28
29797 37246 37247 28
29798 37246 37248 28
29799 37246 37249 28
29800 37246 37250 28
29801 37251 37252 28
29802 37251 37253 28
29803 37251 37254 28
29804 37251 37255 28
29805 37256 37257 28
29806 37256 37258 28
29807 37256 37259 28
29808 37256 37260 28
29809 37261 37262 28
29810 37261 37263 28
29811 37261 37264 28
29812 37261 37265 28
29813 37266 37267 28
29814 37266 37268 28
29815 37266 37269 28
29816 37266 37270 28
29817 37271 37272 28
29818 37271 37273 28
29819 37271 37274 28
29820 37271 37275 28
29821 37276 37277 28
29822 37276 37278 28
29823 37276 37279 28
29824 37276 37280 28
29825 37281 37282 28
29826 37281 37283 28
29827 37281 37284 28
29828 37281 37285 28
29829 37286 37287 28
29830 37286 37288 28
29831 37286 37289 28
29832 37286 37290 28
29833 37291 37292 28
29834 37291 37293 28
29835 37291 37294 28
29836 37291 37295 28
29837 37296 37297 28
29838 37296 37298 28
29839 37296 37299 28
29840 37296 37300 28
29841 37301 37302 28
29842 37301 37303 28
29843 37301 37304 28
29844 37301 37305 28
29845 37306 37307 28
29846 37306 37308 28
29847 37306 37309 28
29848 37306 37310 28
29849 37311 37312 28
29850 37311 37313 28
29851 37311 37314 28
29852 37311 37315 28
29853 37316 37317 28
29854 37316 37318 28
29855 37316 37319 28
29856 37316 37320 28
29857 37321 37322 28
29858 37321 37323 28
29859 37321 37324 28
29860 37321 37325 28
29861 37326 37327 28
29862 37326 37328 28
29863 37326 37329 28
29864 37326 37330 28
29865 37331 37332 28
29866 37331 37333 28
29867 37331 37334 28
29868 37331 37335 28
29869 37336 37337 28
29870 37336 37338 28
29871 37336 37339 28
29872 37336 37340 28
29873 37341 37342 28
29874 37341 37343 28
29875 37341 37344 28
29876 37341 37345 28
29877 37346 37347 28
29878 37346 37348 28
29879 37346 37349 28
29880 37346 37350 28
29881 37351 37352 28
29882 37351 37353 28
29883 37351 37354 28
29884 37351 37355 28
29885 37356 37357 28
29886 37356 37358 28
29887 37356 37359 28
29888 37356 37360 28
29889 37361 37362 28
29890 37361 37363 28
29891 37361 37364 28
29892 37361 37365 28
29893 37366 37367 28
29894 37366 37368 28
29895 37366 37369 28
29896 37366 37370 28
29897 37371 37372 28
29898 37371 37373 28
29899 37371 37374 28
29900 37371 37375 28
29901 37376 37377 28
29902 37376 37378 28
29903 37376 37379 28
29904 37376 37380 28
29905 37381 37382 28
29906 37381 37383 28
29907 37381 37384 28
29908 37381 37385 28
29909 37386 37387 28
29910 37386 37388 28
29911 37386 37389 28
29912 37386 37390 28
29913 37391 37392 28
29914 37391 37393 28
29915 37391 37394 28
29916 37391 37395 28
29917 37396 37397 28
29918 37396 37398 28
29919 37396 37399 28
29920 37396 37400 28
29921 37401 37402 28
29922 37401 37403 28
29923 37401 37404 28
29924 37401 37405 28
29925 37406 37407 28
29926 37406 37408 28
29927 37406 37409 28
29928 37406 37410 28
29929 37411 37412 28
29930 37411 37413 28
29931 37411 37414 28
29932 37411 37415 28
29933 37416 37417 28
29934 37416 37418 28
29935 37416 37419 28
29936 37416 37420 28
29937 37421 37422 28
29938 37421 37423 28
29939 37421 37424 28
29940 37421 37425 28
29941 37426 37427 28
29942 37426 37428 28
29943 37426 37429 28
29944 37426 37430 28
29945 37431 37432 28
29946 37431 37433 28
29947 37431 37434 28
29948 37431 37435 28
29949 37436 37437 28
29950 37436 37438 28
29951 37436 37439 28
29952 37436 37440 28
29953 37441 37442 28
29954 37441 37443 28
29955 37441 37444 28
29956 37441 37445 28
29957 37446 37447 28
29958 37446 37448 28
29959 37446 37449 28
29960 37446 37450 28
29961 37451 37452 28
29962 37451 37453 28
29963 37451 37454 28
29964 37451 37455 28
29965 37456 37457 28
29966 37456 37458 28
29967 37456 37459 28
29968 37456 37460 28
29969 37461 37462 28
29970 37461 37463 28
29971 37461 37464 28
29972 37461 37465 28
29973 37466 37467 28
29974 37466 37468 28
29975 37466 37469 28
29976 37466 37470 28
29977 37471 37472 28
29978 37471 37473 28
29979 37471 37474 28
29980 37471 37475 28
29981 37476 37477 28
29982 37476 37478 28
29983 37476 37479 28
29984 37476 37480 28
29985 37481 37482 28
29986 37481 37483 28
29987 37481 37484 28
29988 37481 37485 28
29989 37486 37487 28
29990 37486 37488 28
29991 37486 37489 28
29992 37486 37490 28
29993 37491 37492 28
29994 37491 37493 28
29995 37491 37494 28
29996 37491 37495 28
29997 37496 37497 28
29998 37496 37498 28
29999 37496 37499 28
30000 37496 37500 28
@<TRIPOS>CRYSIN
199.23816127591965 199.23816127591965 199.23816127591965 90 90 90 1 1
