@<TRIPOS>MOLECULE
mol
37500 30000
SMALL
USER_CHARGES


@<TRIPOS>ATOM
1 C 85.29478366695474 99.11640429346367 140.2532052924197 C 0.0 **** -0.24
2 H 85.55934819559428 98.06193723419703 140.17755357482525 H 0.0 **** 0.06
3 H 85.29212239346828 99.41619712404567 141.30092831274817 H 0.0 **** 0.06
4 H 84.30397493913279 99.2733076789594 139.827259583412 H 0.0 **** 0.06
5 H 86.0245715650542 99.71354158384914 139.70617416811154 H 0.0 **** 0.06
6 C 115.59729839967274 80.60304989712274 157.43511125568844 C 0.0 **** -0.24
7 H 115.08630710094353 79.73389022065147 157.8486625821576 H 0.0 **** 0.06
8 H 115.36572167040406 80.69074196335035 156.37304453796557 H 0.0 **** 0.06
9 H 116.67379864646388 80.48632725985959 157.56333928706584 H 0.0 **** 0.06
10 H 115.26432968063828 81.50150020453624 157.95546234761673 H 0.0 **** 0.06
11 C 180.69657822228578 112.2727787939947 170.89792060336805 C 0.0 **** -0.24
12 H 180.80431662489625 111.58091568773956 171.73306264708708 H 0.0 **** 0.06
13 H 180.22380622173168 111.75919631429313 170.05984299740155 H 0.0 **** 0.06
14 H 181.67997465730096 112.6320665967135 170.59471425556214 H 0.0 **** 0.06
15 H 180.07850619557354 113.11706030713098 171.2028813430631 H 0.0 **** 0.06
16 C 29.425425318305713 113.73616638055087 101.52749407067493 C 0.0 **** -0.24
17 H 30.08574553867794 114.16503446855712 102.28113372492807 H 0.0 **** 0.06
18 H 29.981104657837307 113.58247512279617 100.60236119572458 H 0.0 **** 0.06
19 H 28.59344786219941 114.41681951163788 101.3443460061453 H 0.0 **** 0.06
20 H 29.040941236378615 112.78017924614717 101.88379726654328 H 0.0 **** 0.06
21 C 39.77129050346937 97.97482922288263 174.01619226982785 C 0.0 **** -0.24
22 H 38.90899981017816 98.61376905475989 173.8265109410696 H 0.0 **** 0.06
23 H 40.26970006316054 98.29840434921563 174.9305622378515 H 0.0 **** 0.06
24 H 40.46565415497969 98.04411257090273 173.17954881470942 H 0.0 **** 0.06
25 H 39.44006113927145 96.942606992835 174.12927072203186 H 0.0 **** 0.06
26 C 116.01024972387319 62.094884036239264 44.22810294991484 C 0.0 **** -0.24
27 H 115.0628087060594 62.63335242095788 44.275964455010865 H 0.0 **** 0.06
28 H 115.83903028120949 61.03997935109564 44.4436148588278 H 0.0 **** 0.06
29 H 116.7003863515535 62.50919611158537 44.961949842904374 H 0.0 **** 0.06
30 H 116.43487938628692 62.19847085790151 43.23004796146148 H 0.0 **** 0.06
31 C 9.72370280248984 55.130382044113446 27.01729638903322 C 0.0 **** -0.24
32 H 10.631683566161414 55.083444167524476 26.415484001929144 H 0.0 **** 0.06
33 H 9.286811767544009 56.12570003535416 26.938469526203903 H 0.0 **** 0.06
34 H 9.966708572706622 54.92041389827796 28.058587376161142 H 0.0 **** 0.06
35 H 9.009864669830108 54.39030883026379 26.654159848029906 H 0.0 **** 0.06
36 C 0.3147595095415596 180.72697070423823 102.05132947831278 C 0.0 **** -0.24
37 H 0.34421667908286224 180.8949659433827 103.12800920953664 H 0.0 **** 0.06
38 H -0.5962635725142533 180.18731709395772 101.79272111178507 H 0.0 **** 0.06
39 H 1.18322381737228 180.13966784671013 101.75161714199199 H 0.0 **** 0.06
40 H 0.3292125869465323 181.68654223636054 101.53386550597936 H 0.0 **** 0.06
41 C 159.0262250569571 22.509200787546945 136.80017281676777 C 0.0 **** -0.24
42 H 158.1971071480352 22.703081027627718 137.47933131362976 H 0.0 **** 0.06
43 H 158.76484163990443 21.690286374788684 136.12974290625783 H 0.0 **** 0.06
44 H 159.91225826643242 22.239889570177155 137.37576208222725 H 0.0 **** 0.06
45 H 159.2327328407912 23.405617015449508 136.2151122603213 H 0.0 **** 0.06
46 C 147.44041856772785 70.89999918358657 154.77268168984665 C 0.0 **** -0.24
47 H 148.20670843588616 70.56114360688547 155.47023606891537 H 0.0 **** 0.06
48 H 147.72415785274055 71.87064716098381 154.3658046960105 H 0.0 **** 0.06
49 H 146.48826369122543 70.98860868862863 155.29540896091171 H 0.0 **** 0.06
50 H 147.34381047888164 70.1793118457684 153.9613543985184 H 0.0 **** 0.06
51 C 112.68901297034289 52.88620219724788 166.95346149143688 C 0.0 **** -0.24
52 H 113.19348990983109 52.42555475382443 166.1040821212423 H 0.0 **** 0.06
53 H 113.39426667245185 53.514723436498286 167.49661488990506 H 0.0 **** 0.06
54 H 112.31013940339948 52.10689157759779 167.61598785607484 H 0.0 **** 0.06
55 H 111.85813107873643 53.49450011956367 166.59609013946385 H 0.0 **** 0.06
56 C 78.38366000447303 39.24844824323564 91.96231702779994 C 0.0 **** -0.24
57 H 78.93540057628151 38.78031077090908 92.77824903577203 H 0.0 **** 0.06
58 H 77.78661189607006 40.07191672772625 92.35408171884444 H 0.0 **** 0.06
59 H 77.72866439204384 38.51147162605963 91.49840156287354 H 0.0 **** 0.06
60 H 79.08679069708353 39.62840878092163 91.22121273043678 H 0.0 **** 0.06
61 C 43.72250655484882 94.08171665701106 55.80442613348353 C 0.0 **** -0.24
62 H 43.565833461185434 94.85300960376726 55.050230469949184 H 0.0 **** 0.06
63 H 43.34607280932957 94.431465696763 56.76490339460233 H 0.0 **** 0.06
64 H 44.78764409454112 93.86664788226959 55.88694760976432 H 0.0 **** 0.06
65 H 43.19010437064776 93.17623161289124 55.5122136624874 H 0.0 **** 0.06
66 C 11.949114613503866 30.88668365341573 90.3216078689231 C 0.0 **** -0.24
67 H 12.907947223872156 30.50237867289593 89.97280694353971 H 0.0 **** 0.06
68 H 11.667886843457723 31.75524362008781 89.72474445980815 H 0.0 **** 0.06
69 H 12.033294448155118 31.176374649500957 91.36912075672062 H 0.0 **** 0.06
70 H 11.188968609004917 30.11278736583455 90.2174544322783 H 0.0 **** 0.06
71 C 107.39735254959713 158.6774147939323 51.000964008458766 C 0.0 **** -0.24
72 H 107.44862942316728 158.2670756274388 49.99241712522132 H 0.0 **** 0.06
73 H 108.36770966323165 158.57033853891488 51.48570322606028 H 0.0 **** 0.06
74 H 106.64257286786345 158.1396055106151 51.574429929362296 H 0.0 **** 0.06
75 H 107.13138298557708 159.7331449892451 50.95032505886307 H 0.0 **** 0.06
76 C 10.439995033852355 135.69672992297376 74.50732473694877 C 0.0 **** -0.24
77 H 9.49710005978676 135.37964129407584 74.06033003383115 H 0.0 **** 0.06
78 H 10.435130824610233 136.77881359913727 74.63723860519615 H 0.0 **** 0.06
79 H 11.265219156160647 135.4122643289209 73.8536903873573 H 0.0 **** 0.06
80 H 10.561716596974108 135.21430652985651 75.47717312476999 H 0.0 **** 0.06
81 C 177.55603905327945 37.55384806579707 39.12073354777783 C 0.0 **** -0.24
82 H 178.41224292899724 36.991945326869256 39.496364541312346 H 0.0 **** 0.06
83 H 177.88497331631945 38.53798411023536 38.78790199137438 H 0.0 **** 0.06
84 H 176.81905531861355 37.664838270157475 39.916052043702166 H 0.0 **** 0.06
85 H 177.10922449517275 37.01682771739729 38.283953252487834 H 0.0 **** 0.06
86 C 157.192555334128 65.34508320771847 184.08567664903416 C 0.0 **** -0.24
87 H 156.13247679889304 65.0963769597305 184.12779608756352 H 0.0 **** 0.06
88 H 157.3112813319637 66.42894119740843 184.08820198855366 H 0.0 **** 0.06
89 H 157.6253046443643 64.9331978441127 183.17365205507105 H 0.0 **** 0.06
90 H 157.7003317561287 64.9208832860923 184.95185439845864 H 0.0 **** 0.06
91 C 106.99323795450873 102.22686047129817 158.7429431205621 C 0.0 **** -0.24
92 H 106.0169174269926 102.68381995587909 158.58084554237672 H 0.0 **** 0.06
93 H 106.86796303791827 101.15934089597609 158.9291461302093 H 0.0 **** 0.06
94 H 107.47355932930485 102.69186034119117 159.60343881691813 H 0.0 **** 0.06
95 H 107.61329148916708 102.37033409754942 157.85873767751795 H 0.0 **** 0.06
96 C 35.66623311656302 118.99574016411664 158.22312834297836 C 0.0 **** -0.24
97 H 35.098035400618286 119.84751491971026 158.59903594257577 H 0.0 **** 0.06
98 H 35.39071492748566 118.10117516959055 158.7817611064063 H 0.0 **** 0.06
99 H 36.73225212606414 119.18794862852799 158.3455160310181 H 0.0 **** 0.06
100 H 35.44229065102823 118.84910325595153 157.16695992418965 H 0.0 **** 0.06
101 C 77.92275488293508 91.00099824101743 139.33545151144546 C 0.0 **** -0.24
102 H 76.99049101981393 90.71595992569816 139.82185523583615 H 0.0 **** 0.06
103 H 78.71550719005046 90.31820661376561 139.6402821590127 H 0.0 **** 0.06
104 H 78.18671891134835 92.01847361347036 139.62563808429888 H 0.0 **** 0.06
105 H 77.79666649512777 90.95287714472356 138.25401291752786 H 0.0 **** 0.06
106 C 60.64419286775993 142.6865061331075 120.18512116727713 C 0.0 **** -0.24
107 H 60.30481941154471 143.69897990508252 120.40660911719375 H 0.0 **** 0.06
108 H 60.67613311373944 142.54250432231845 119.10513891612571 H 0.0 **** 0.06
109 H 59.95589878705533 141.96826050556808 120.62833419712142 H 0.0 **** 0.06
110 H 61.641146871537615 142.53872138758902 120.60164100455735 H 0.0 **** 0.06
111 C 99.59567262233342 121.32113071521093 24.331967109756718 C 0.0 **** -0.24
112 H 99.33092243573945 120.75135713526691 25.22284127408554 H 0.0 **** 0.06
113 H 99.39597678768918 120.71975460862654 23.445034351743317 H 0.0 **** 0.06
114 H 100.65421804765207 121.57830091257523 24.3663244780396 H 0.0 **** 0.06
115 H 99.0000344341967 122.23350016819222 24.2938684618521 H 0.0 **** 0.06
116 C 24.451903943617353 39.710503588304775 175.29315515611034 C 0.0 **** -0.24
117 H 25.485002390101812 39.45389925977875 175.5272858419449 H 0.0 **** 0.06
118 H 24.429081826640356 40.63777909621891 174.71888022430977 H 0.0 **** 0.06
119 H 23.892294097401816 39.84313187007852 176.21897690844963 H 0.0 **** 0.06
120 H 24.001628610830068 38.90962210669565 174.70750055073302 H 0.0 **** 0.06
121 C 175.10499375040393 76.72372731921087 82.47988843468127 C 0.0 **** -0.24
122 H 175.1704850500734 75.72950667294742 82.03773623984863 H 0.0 **** 0.06
123 H 175.2158038816549 76.64782594546898 83.5620194262261 H 0.0 **** 0.06
124 H 174.1352423872413 77.16291822535686 82.24403037265996 H 0.0 **** 0.06
125 H 175.8972438374572 77.35444621005371 82.07648560133714 H 0.0 **** 0.06
126 C 5.848899041809581 185.26050032174285 46.02601472886994 C 0.0 **** -0.24
127 H 5.9880524573441605 185.48562924649832 47.083630287401036 H 0.0 **** 0.06
128 H 6.524327882002247 185.87671331981088 45.43192988241532 H 0.0 **** 0.06
129 H 4.8184654720686595 185.47221929579618 45.741442971355696 H 0.0 **** 0.06
130 H 6.066783466481489 184.20686469508598 45.847788079098734 H 0.0 **** 0.06
131 C 89.19374062416982 135.49273392621717 42.56493230034883 C 0.0 **** -0.24
132 H 88.95808581850396 136.28705329257502 43.27335161527435 H 0.0 **** 0.06
133 H 89.51129430774098 135.9324390575486 41.6192635275448 H 0.0 **** 0.06
134 H 88.30867775294193 134.87772250282245 42.401200711328556 H 0.0 **** 0.06
135 H 89.99670127438954 134.87445128046141 42.96656538286544 H 0.0 **** 0.06
136 C 110.47323515679558 171.49538387914936 21.14309540984027 C 0.0 **** -0.24
137 H 110.97386835647536 172.37075114594768 21.554723721857272 H 0.0 **** 0.06
138 H 109.92537279158519 170.98365975810657 21.935453068374215 H 0.0 **** 0.06
139 H 111.21402882955606 170.8188584554917 20.717780902344884 H 0.0 **** 0.06
140 H 109.7774852273967 171.80786034427456 20.36466760537448 H 0.0 **** 0.06
141 C 105.36407294473905 49.075247774810975 31.77756908421233 C 0.0 **** -0.24
142 H 105.51725055455317 48.33641321513775 30.99097994398403 H 0.0 **** 0.06
143 H 105.20314952902528 50.055736956353485 31.328433242808956 H 0.0 **** 0.06
144 H 106.24245017001685 49.10896174885042 32.4206741580108 H 0.0 **** 0.06
145 H 104.49086102580189 48.798947045082286 32.36950171750948 H 0.0 **** 0.06
146 C 103.11138143777232 112.08526348903631 129.74944746400888 C 0.0 **** -0.24
147 H 102.44787543538753 112.83410876489499 130.1814589100486 H 0.0 **** 0.06
148 H 103.89039023431967 112.58230989779467 129.16989197271386 H 0.0 **** 0.06
149 H 102.5393713905221 111.42506275498944 129.09811126818317 H 0.0 **** 0.06
150 H 103.56860250915908 111.50190832490772 130.54814138969812 H 0.0 **** 0.06
151 C 95.3635361220409 83.64861389657239 52.22916470587421 C 0.0 **** -0.24
152 H 96.14054058216914 83.6525179917212 51.46542904215397 H 0.0 **** 0.06
153 H 95.23083333656672 82.63402604289594 52.60718172327324 H 0.0 **** 0.06
154 H 94.42691302512401 84.00035906462817 51.79646749410938 H 0.0 **** 0.06
155 H 95.65535210353312 84.30598392662706 53.04811368870173 H 0.0 **** 0.06
156 C 27.337597325002832 40.89246397252775 131.34320572938543 C 0.0 **** -0.24
157 H 26.927325098000182 40.453472060419486 132.25209193765983 H 0.0 **** 0.06
158 H 26.551768991505128 41.43233512088224 130.81405890812437 H 0.0 **** 0.06
159 H 27.731276516605988 40.102730052148104 130.70352503857055 H 0.0 **** 0.06
160 H 28.140090811899995 41.5823163952674 131.60414671618582 H 0.0 **** 0.06
161 C 132.51826481194786 106.39209699723902 140.92929417179312 C 0.0 **** -0.24
162 H 133.34032831913453 106.95304407875942 140.48649818494653 H 0.0 **** 0.06
163 H 131.76658617998697 107.08551882272128 141.30760197095435 H 0.0 **** 0.06
164 H 132.89646336865417 105.78172521698072 141.74979555649537 H 0.0 **** 0.06
165 H 132.06950549140998 105.74659774085846 140.1741252163884 H 0.0 **** 0.06
166 C 97.92308711857332 115.06892506504524 12.036562661581428 C 0.0 **** -0.24
167 H 98.24004020470561 114.45714722745795 12.88188331755589 H 0.0 **** 0.06
168 H 98.40246153453676 116.04648047341753 12.097816089308878 H 0.0 **** 0.06
169 H 96.84124272523381 115.19198718299977 12.062711090158217 H 0.0 **** 0.06
170 H 98.21120177167536 114.58001156162449 11.106532087401831 H 0.0 **** 0.06
171 C 17.398832882534172 17.543470922643934 139.48107960840116 C 0.0 **** -0.24
172 H 16.38214221158122 17.874386144048742 139.26928122050083 H 0.0 **** 0.06
173 H 18.09590457312442 18.06890239250049 138.82819355748916 H 0.0 **** 0.06
174 H 17.475822406096967 16.470421180605257 139.30639354122366 H 0.0 **** 0.06
175 H 17.642244900670477 17.760994677496143 140.5212951540385 H 0.0 **** 0.06
176 C 117.53094052105052 116.65824110149039 17.88262902056823 C 0.0 **** -0.24
177 H 118.28721635743904 117.27664097490201 17.39796537642229 H 0.0 **** 0.06
178 H 117.24259067663291 117.11343361379225 18.83027954383232 H 0.0 **** 0.06
179 H 117.9393413778057 115.66468399000182 18.067270207970353 H 0.0 **** 0.06
180 H 116.65801252315401 116.57871638842254 17.23609066118223 H 0.0 **** 0.06
181 C 11.902620245914214 112.85071715550792 49.6031732193768 C 0.0 **** -0.24
182 H 12.858356222970734 112.49307759919084 49.9882226839527 H 0.0 **** 0.06
183 H 12.055007205069629 113.78671529705723 49.065303281865425 H 0.0 **** 0.06
184 H 11.21604346631456 113.01583980534419 50.43322694540103 H 0.0 **** 0.06
185 H 11.483066388005533 112.10662195803287 48.92674861925087 H 0.0 **** 0.06
186 C 181.47964132831524 177.38346267796703 52.230937113791825 C 0.0 **** -0.24
187 H 181.69624409468258 177.53656346870798 51.17309885382818 H 0.0 **** 0.06
188 H 181.4467436299198 176.31420307791882 52.44305039533721 H 0.0 **** 0.06
189 H 180.5165845053906 177.83136254413387 52.47309118675349 H 0.0 **** 0.06
190 H 182.25918964522506 177.85010258952423 52.83268038459704 H 0.0 **** 0.06
191 C 9.498101003268687 70.14307382120748 12.743787504769934 C 0.0 **** -0.24
192 H 9.470633723453751 69.56311441067488 11.821548933540384 H 0.0 **** 0.06
193 H 10.10702690975711 71.03530997123019 12.59262105216932 H 0.0 **** 0.06
194 H 9.929302144260916 69.53822428452541 13.54140331071953 H 0.0 **** 0.06
195 H 8.484529413782738 70.43737062714055 13.018094655472737 H 0.0 **** 0.06
196 C 127.11050626481365 32.594613612350884 108.95439742491253 C 0.0 **** -0.24
197 H 126.35998741850098 33.23592830920103 109.41717631337882 H 0.0 **** 0.06
198 H 126.89546124055356 31.552737400058973 109.19459940715383 H 0.0 **** 0.06
199 H 128.09794539703404 32.859126118016476 109.3353075284712 H 0.0 **** 0.06
200 H 127.08941234020425 32.73200330644326 107.87391121554391 H 0.0 **** 0.06
201 C 58.35875611354702 179.73084542050682 18.877398046213315 C 0.0 **** -0.24
202 H 58.45645053346789 179.82372847877835 19.958963068472713 H 0.0 **** 0.06
203 H 59.34947909912309 179.65953917321076 18.428461803956672 H 0.0 **** 0.06
204 H 57.84277748659578 180.6061246239289 18.482780845592714 H 0.0 **** 0.06
205 H 57.786006832828946 178.8336300224024 18.64071856336757 H 0.0 **** 0.06
206 C 168.72301078522008 151.08063484986474 141.63386327491264 C 0.0 **** -0.24
207 H 168.8253762202624 151.81037645157897 140.83018367741238 H 0.0 **** 0.06
208 H 168.19034976133642 151.53313356551791 142.46960036302949 H 0.0 **** 0.06
209 H 169.71252323503373 150.76189687897255 141.9623714091353 H 0.0 **** 0.06
210 H 168.16550134109147 150.21755086426626 141.27014963114198 H 0.0 **** 0.06
211 C 6.810860389706733 123.98801108351533 130.59149813039159 C 0.0 **** -0.24
212 H 6.617711881180242 123.12955012142665 131.23490841692336 H 0.0 **** 0.06
213 H 6.225238238582165 123.89526936693507 129.67731324032292 H 0.0 **** 0.06
214 H 7.871358961533701 124.02393769321951 130.34256758495445 H 0.0 **** 0.06
215 H 6.529483318682537 124.90345796762806 131.11212401678017 H 0.0 **** 0.06
216 C 178.14306277018295 176.46621108505252 108.77839356082718 C 0.0 **** -0.24
217 H 177.2987391268053 177.0748220200004 109.10153697892851 H 0.0 **** 0.06
218 H 179.0515190528855 176.81350422405518 109.27066078953875 H 0.0 **** 0.06
219 H 178.25909851333915 176.55053115576723 107.69740548498952 H 0.0 **** 0.06
220 H 177.96163530792694 175.42392556899807 109.04356403235239 H 0.0 **** 0.06
221 C 6.90265981997274 174.414688285179 38.15813766011331 C 0.0 **** -0.24
222 H 6.213614429074653 173.82085310182438 38.758524687149546 H 0.0 **** 0.06
223 H 7.8528692538260145 173.8874790065024 38.06872407158812 H 0.0 **** 0.06
224 H 7.065777542819603 175.3789347575118 38.63996721824877 H 0.0 **** 0.06
225 H 6.478481167493442 174.57123381046188 37.166722351757286 H 0.0 **** 0.06
226 C 114.18522930734541 63.025044834098935 169.80317483120584 C 0.0 **** -0.24
227 H 114.65751228269615 63.433817547253426 168.91043970857245 H 0.0 **** 0.06
228 H 114.15001489189602 61.93805999794006 169.73012502366169 H 0.0 **** 0.06
229 H 113.17189526570705 63.41728352539758 169.88891450113928 H 0.0 **** 0.06
230 H 114.76115495157943 63.31232677461844 170.68280492330848 H 0.0 **** 0.06
231 C 109.73940262345427 17.522447582382455 33.84400822361334 C 0.0 **** -0.24
232 H 110.7492022930884 17.82269076299204 33.56395639432742 H 0.0 **** 0.06
233 H 109.0333430657456 18.293446937134114 33.535077379432096 H 0.0 **** 0.06
234 H 109.68558376046526 17.392732399892076 34.924909636258036 H 0.0 **** 0.06
235 H 109.49039520921572 16.58197749698966 33.35187236452657 H 0.0 **** 0.06
236 C 46.23382889637759 150.33175984860324 34.024144329182846 C 0.0 **** -0.24
237 H 45.57649891754289 149.5318840524913 33.68683095456876 H 0.0 **** 0.06
238 H 46.84644433370238 149.97414275394118 34.852598152824385 H 0.0 **** 0.06
239 H 45.63458584872214 151.1803313141479 34.354746219454924 H 0.0 **** 0.06
240 H 46.879547749413916 150.64238333539043 33.20236906085623 H 0.0 **** 0.06
241 C 160.01823968470302 158.02753905682334 76.43821844516143 C 0.0 **** -0.24
242 H 160.20146231968022 157.0359727553435 76.023407503502 H 0.0 **** 0.06
243 H 160.78426760061353 158.25791178227144 77.18023263693904 H 0.0 **** 0.06
244 H 159.0368773294405 158.04792488581418 76.90997331574289 H 0.0 **** 0.06
245 H 160.0538476060804 158.7671495478723 75.63867373260697 H 0.0 **** 0.06
246 C 90.48440410445403 93.98090540831032 131.81046823313648 C 0.0 **** -0.24
247 H 90.28193722876063 92.91354050394602 131.89934280664994 H 0.0 **** 0.06
248 H 89.65065001826923 94.46777640852298 131.30449282012302 H 0.0 **** 0.06
249 H 91.39765217102388 94.13083198172632 131.2357375806463 H 0.0 **** 0.06
250 H 90.60666016188486 94.41100965986948 132.80517582032138 H 0.0 **** 0.06
251 C 144.35740088695312 43.05737645559617 46.599779693349376 C 0.0 **** -0.24
252 H 143.87133254622546 42.274019828387736 47.18041494882925 H 0.0 **** 0.06
253 H 143.61663570472513 43.797377644945016 46.29723789134849 H 0.0 **** 0.06
254 H 144.81722416738813 42.61925312918174 45.712804544555524 H 0.0 **** 0.06
255 H 145.12464254241394 43.537150837619095 47.20691734810168 H 0.0 **** 0.06
256 C 111.68358829403648 125.01405772082474 127.16520723299358 C 0.0 **** -0.24
257 H 112.10993039691594 124.4233691641284 126.35532960892711 H 0.0 **** 0.06
258 H 111.82310679562435 126.07427623308992 126.9538079424036 H 0.0 **** 0.06
259 H 112.18196399717861 124.76080130426534 128.10075103247175 H 0.0 **** 0.06
260 H 110.61842249204601 124.79794444615094 127.25127258341037 H 0.0 **** 0.06
261 C 44.96288752993928 179.40707407348214 68.25188123837228 C 0.0 **** -0.24
262 H 44.635034832088536 180.18628220249582 67.56417370542971 H 0.0 **** 0.06
263 H 44.76633397335024 178.42921527779077 67.81330944758736 H 0.0 **** 0.06
264 H 44.42028686968342 179.49985698146273 69.19168928965487 H 0.0 **** 0.06
265 H 46.032027440686534 179.5137753295204 68.43748316720553 H 0.0 **** 0.06
266 C 150.05856495633898 5.949324138755685 22.923812088554044 C 0.0 **** -0.24
267 H 148.970972133444 6.020431975224767 22.950267769685667 H 0.0 **** 0.06
268 H 150.39492390246392 5.919707609225384 21.887277529757057 H 0.0 **** 0.06
269 H 150.37478153714093 5.040866153348816 23.435445258099648 H 0.0 **** 0.06
270 H 150.4917530712181 6.81675720557439 23.422918612313637 H 0.0 **** 0.06
271 C 82.48360935763321 79.55523969088287 162.96675828388314 C 0.0 **** -0.24
272 H 82.23713859335578 80.16335036074304 163.83696971317562 H 0.0 **** 0.06
273 H 83.33781893164053 78.91920612506797 163.1992462922633 H 0.0 **** 0.06
274 H 82.73254738404734 80.2058682124258 162.1283862003187 H 0.0 **** 0.06
275 H 81.62751348075653 78.93447028344724 162.70338679020966 H 0.0 **** 0.06
276 C 157.11428906385333 173.9271198190318 175.30326442976275 C 0.0 **** -0.24
277 H 156.2269102484456 174.19712449712674 174.73173958570874 H 0.0 **** 0.06
278 H 157.78056649795334 173.33075355480088 174.68033023489357 H 0.0 **** 0.06
279 H 156.82005192170357 173.34871678135693 176.1789657431986 H 0.0 **** 0.06
280 H 157.62950857060548 174.8334822623889 175.62268009283594 H 0.0 **** 0.06
281 C 137.41330299666328 54.97990569003899 20.19823816460648 C 0.0 **** -0.24
282 H 138.03714340986448 54.181947300072636 20.601419164951977 H 0.0 **** 0.06
283 H 136.52834345927937 55.09939846708561 20.82310891247426 H 0.0 **** 0.06
284 H 137.11051097520374 54.725867286894655 19.181841158591034 H 0.0 **** 0.06
285 H 137.97911214998732 55.911923006766116 20.18550601154432 H 0.0 **** 0.06
286 C 169.16810728262973 88.70201574000863 21.095731583997747 C 0.0 **** -0.24
287 H 168.09958090493444 88.59405472673235 21.279631397176246 H 0.0 **** 0.06
288 H 169.32816528090575 89.43365969225765 20.302959889351087 H 0.0 **** 0.06
289 H 169.58277601905135 87.73983371620723 20.792227055593145 H 0.0 **** 0.06
290 H 169.6618020103363 89.03962170868478 22.006321535032498 H 0.0 **** 0.06
291 C 91.86978773231935 3.024396794223179 89.48896146003581 C 0.0 **** -0.24
292 H 91.7206934599205 2.395312787731484 90.36661263079078 H 0.0 **** 0.06
293 H 91.32328902820826 2.603738963597749 88.64432097904505 H 0.0 **** 0.06
294 H 92.9330097283751 3.066227776333733 89.25000634159268 H 0.0 **** 0.06
295 H 91.50286196960651 4.0293788866328555 89.69586923010165 H 0.0 **** 0.06
296 C 55.83310106973829 120.99958251551494 67.23697278684418 C 0.0 **** -0.24
297 H 55.620999177436744 122.04634137239826 67.45374233179632 H 0.0 **** 0.06
298 H 55.846996442415815 120.84808272435679 66.15782308202353 H 0.0 **** 0.06
299 H 55.05982998839224 120.37280093715079 67.68194364915723 H 0.0 **** 0.06
300 H 56.803593625391386 120.73093861774832 67.65433716207491 H 0.0 **** 0.06
301 C 13.79559433559649 161.8400465402315 176.71947971253928 C 0.0 **** -0.24
302 H 13.834295738630999 162.77256197772925 177.28448110900428 H 0.0 **** 0.06
303 H 14.559168020075418 161.1577723923993 177.09398150946961 H 0.0 **** 0.06
304 H 13.97766038518381 162.04713389752538 175.66484842736605 H 0.0 **** 0.06
305 H 12.812899199182993 161.38524684859996 176.8368203622705 H 0.0 **** 0.06
306 C 62.41447335855695 124.65613039607128 102.602826971414 C 0.0 **** -0.24
307 H 63.41095007406321 124.37973702681087 102.94548743209788 H 0.0 **** 0.06
308 H 62.38949411744049 124.6464505883193 101.5124152409515 H 0.0 **** 0.06
309 H 62.16959511001471 125.65483896015103 102.96281333612257 H 0.0 **** 0.06
310 H 61.68623332028997 123.94230963010814 102.98859988208307 H 0.0 **** 0.06
311 C 146.83703256188875 145.25797268844383 80.07069695090408 C 0.0 **** -0.24
312 H 147.56725471929565 144.9427137778352 80.81655873676652 H 0.0 **** 0.06
313 H 147.353546318649 145.52255357131295 79.14741319879828 H 0.0 **** 0.06
314 H 146.28938639918383 146.1237502315957 80.44219294617324 H 0.0 **** 0.06
315 H 146.14075625366064 144.44196800388636 79.87713811933716 H 0.0 **** 0.06
316 C 165.77722552028408 140.9463676693511 96.75907573763153 C 0.0 **** -0.24
317 H 166.0190631911511 141.7127525060128 97.49489783952025 H 0.0 **** 0.06
318 H 166.5962540949061 140.8559077384108 96.04593511707976 H 0.0 **** 0.06
319 H 164.86438561794853 141.2247855924461 96.23172276702506 H 0.0 **** 0.06
320 H 165.626995335754 139.9921174583049 97.26411414475389 H 0.0 **** 0.06
321 C 112.66868433894633 123.32267486027116 154.77287586526674 C 0.0 **** -0.24
322 H 111.76001237600819 123.61915667614231 154.24911145712474 H 0.0 **** 0.06
323 H 113.01275653777823 124.14821035563604 155.39775656361434 H 0.0 **** 0.06
324 H 113.44055688635358 123.06955592134686 154.04710048708608 H 0.0 **** 0.06
325 H 112.460031580423 122.45595155554737 155.39936934592737 H 0.0 **** 0.06
326 C 140.87193067103414 92.71760764851994 33.124148076728574 C 0.0 **** -0.24
327 H 140.9698267638729 93.70703426151714 33.569912223751714 H 0.0 **** 0.06
328 H 140.88688985161326 91.96168313157183 33.9103813455404 H 0.0 **** 0.06
329 H 141.70038209920892 92.54504508854122 32.43770671890633 H 0.0 **** 0.06
330 H 139.92923370384165 92.65643667956006 32.57870885111464 H 0.0 **** 0.06
331 C 69.50471891819427 75.33081921177731 87.6669001601 C 0.0 **** -0.24
332 H 69.01187567960142 74.45444315805446 87.2460523059039 H 0.0 **** 0.06
333 H 68.75964599629202 75.98377540662469 88.12067642048481 H 0.0 **** 0.06
334 H 70.02686560168797 75.86834712419225 86.87489828777848 H 0.0 **** 0.06
335 H 70.22225181673349 75.0144093582003 88.42520402665957 H 0.0 **** 0.06
336 C 72.69015650973577 6.0120128698495705 77.65173901454813 C 0.0 **** -0.24
337 H 71.75885000634614 5.500126794409255 77.89659251288883 H 0.0 **** 0.06
338 H 72.98051791895195 5.7682586034802625 76.62903059503104 H 0.0 **** 0.06
339 H 73.47260843020456 5.690861182895418 78.3385933845027 H 0.0 **** 0.06
340 H 72.54655495142464 7.088207323339361 77.74223446662126 H 0.0 **** 0.06
341 C 52.6196241172303 151.78839687964262 5.2717712414265065 C 0.0 **** -0.24
342 H 52.31894761366141 151.60902746477797 6.304432191518998 H 0.0 **** 0.06
343 H 53.68377633878006 152.0244264000994 5.239022115329931 H 0.0 **** 0.06
344 H 52.04915668884246 152.62417121544007 4.867731003692654 H 0.0 **** 0.06
345 H 52.42699238723222 150.89623789380636 4.677234711919709 H 0.0 **** 0.06
346 C 117.73127170344486 35.488945592464574 129.48311258570288 C 0.0 **** -0.24
347 H 117.90700882512834 35.961498795958846 130.44975900986412 H 0.0 **** 0.06
348 H 116.67763161445907 35.22355864016424 129.39540456976738 H 0.0 **** 0.06
349 H 118.34110025762567 34.58949702934575 129.40348370457536 H 0.0 **** 0.06
350 H 118.00021219596863 36.18344695513338 128.68631821602446 H 0.0 **** 0.06
351 C 140.0529006678201 55.98626619271883 29.44613145667985 C 0.0 **** -0.24
352 H 139.73328490847092 57.02825254580152 29.446882692427735 H 0.0 **** 0.06
353 H 139.75840360822457 55.517196066033975 28.506344721753635 H 0.0 **** 0.06
354 H 139.58204327267032 55.46156367333175 30.2776192497075 H 0.0 **** 0.06
355 H 141.13586328155048 55.939127414065055 29.552776822487246 H 0.0 **** 0.06
356 C 85.31150989306887 150.44098861939284 61.90068322423497 C 0.0 **** -0.24
357 H 85.58345234078134 151.49133511222954 61.801572749581055 H 0.0 **** 0.06
358 H 84.23108561339997 150.3357876915922 61.804670248213824 H 0.0 **** 0.06
359 H 85.62714193981101 150.07404613866913 62.877873592873726 H 0.0 **** 0.06
360 H 85.80393158918712 149.86227860835356 61.11936449724567 H 0.0 **** 0.06
361 C 25.213713509578213 67.40446126502667 159.64282820657257 C 0.0 **** -0.24
362 H 25.465262179241847 66.50473348490237 160.20347384079767 H 0.0 **** 0.06
363 H 24.522092705394073 67.15028267270739 158.8402802372042 H 0.0 **** 0.06
364 H 26.120871926845894 67.83393386689414 159.21841421195828 H 0.0 **** 0.06
365 H 24.746702787399215 68.12937842792039 160.31047143945295 H 0.0 **** 0.06
366 C 70.76597262250749 181.3404684550674 13.351413294548195 C 0.0 **** -0.24
367 H 70.84023342637295 180.42235509569937 12.767820475494943 H 0.0 **** 0.06
368 H 70.93552483989271 181.1158830609136 14.403906895740931 H 0.0 **** 0.06
369 H 69.77195401460382 181.7713013961945 13.226263871438874 H 0.0 **** 0.06
370 H 71.51560809101561 182.05197359179354 13.005307147490697 H 0.0 **** 0.06
371 C 49.65990020314818 34.26839562649124 129.3784387089475 C 0.0 **** -0.24
372 H 49.27955414573292 33.817782603570805 128.46174729858552 H 0.0 **** 0.06
373 H 50.62555828757523 33.82776882569124 129.6269942513514 H 0.0 **** 0.06
374 H 48.95586430485764 34.087124331416135 130.1911388732745 H 0.0 **** 0.06
375 H 49.776743070122194 35.34278904133208 129.23291577702548 H 0.0 **** 0.06
376 C 160.7012723405038 99.49223073603638 93.09725750106777 C 0.0 **** -0.24
377 H 160.6208928748565 100.4798482882055 93.55075508730589 H 0.0 **** 0.06
378 H 161.74498357027198 99.17728370418139 93.09535756945841 H 0.0 **** 0.06
379 H 160.33207939664788 99.53305533359092 92.07268672454377 H 0.0 **** 0.06
380 H 160.10754475365087 98.7800495619084 93.66990737637433 H 0.0 **** 0.06
381 C 127.67790084837036 64.7914620073258 86.71001889156862 C 0.0 **** -0.24
382 H 127.17673401595401 65.43329007580138 85.9863484777055 H 0.0 **** 0.06
383 H 128.38667810553198 64.14466700016831 86.19190171594464 H 0.0 **** 0.06
384 H 126.93782406358228 64.1793910622687 87.22670632505289 H 0.0 **** 0.06
385 H 128.21002575255142 65.40712771160241 87.43514314835856 H 0.0 **** 0.06
386 C 107.36105805772371 184.2016402243971 142.52792230051023 C 0.0 **** -0.24
387 H 106.3565253312135 184.0506428491215 142.13344144874878 H 0.0 **** 0.06
388 H 108.0777406142663 183.6573932216844 141.91469752803812 H 0.0 **** 0.06
389 H 107.40615479552679 183.8348601742175 143.55401882384763 H 0.0 **** 0.06
390 H 107.60081381393411 185.26510113391112 142.51197084404174 H 0.0 **** 0.06
391 C 137.27419194173297 176.52068685980277 166.1242959719903 C 0.0 **** -0.24
392 H 137.90128075996893 176.64838691042203 165.2409524842268 H 0.0 **** 0.06
393 H 136.22521232629578 176.61035919761215 165.84005834543646 H 0.0 **** 0.06
394 H 137.51961632425008 177.2878086364614 166.8575635719566 H 0.0 **** 0.06
395 H 137.45094599979154 175.53471394198192 166.55464325431197 H 0.0 **** 0.06
396 C 2.8308841989932603 99.8690501984671 100.91038477676517 C 0.0 **** -0.24
397 H 3.360221982599569 99.8762498019584 99.95723890362723 H 0.0 **** 0.06
398 H 3.2707838746424045 99.11561908212845 101.56385336340554 H 0.0 **** 0.06
399 H 1.7804347267880871 99.63449304795664 100.74081416965481 H 0.0 **** 0.06
400 H 2.9127251674318586 100.84976449201964 101.37885877836521 H 0.0 **** 0.06
401 C 20.688086540204665 125.75579074070733 184.32338947377536 C 0.0 **** -0.24
402 H 20.371087652829914 125.86915450129037 185.36000498673047 H 0.0 **** 0.06
403 H 21.45646591900379 126.4946198965737 184.09593405032024 H 0.0 **** 0.06
404 H 19.833316998177338 125.90430642539702 183.66438229864445 H 0.0 **** 0.06
405 H 21.09161713144593 124.75324427278086 184.1748497426598 H 0.0 **** 0.06
406 C 169.9919589825463 2.0061154045713465 88.21165991681852 C 0.0 **** -0.24
407 H 169.96557340874278 1.1776215279670623 87.50429434981226 H 0.0 **** 0.06
408 H 170.28152228871977 2.919380915109855 87.68993334900307 H 0.0 **** 0.06
409 H 170.71724807756732 1.7905026498328311 88.99546741986939 H 0.0 **** 0.06
410 H 169.00458510225718 2.1376194253400627 88.65485500831448 H 0.0 **** 0.06
411 C 18.84401254813332 151.28233872330964 82.51173809989677 C 0.0 **** -0.24
412 H 18.915348725727718 150.73963956590876 81.5694047590772 H 0.0 **** 0.06
413 H 18.259813301134585 152.19049780072294 82.36412479951252 H 0.0 **** 0.06
414 H 19.84464721639855 151.5447701090976 82.85599731225261 H 0.0 **** 0.06
415 H 18.357216285047258 150.65314249601022 83.25683733306863 H 0.0 **** 0.06
416 C 62.538607462286066 180.2065394321394 105.77617968129584 C 0.0 **** -0.24
417 H 62.28250021516446 179.1629018584183 105.59728299854982 H 0.0 **** 0.06
418 H 61.97461516801502 180.84071273032527 105.093138503094 H 0.0 **** 0.06
419 H 63.605992554547186 180.35196519123267 105.60975919592664 H 0.0 **** 0.06
420 H 62.29225907982131 180.47024930645102 106.80465522167526 H 0.0 **** 0.06
421 C 16.376409373705826 122.35108357329297 63.99283325038124 C 0.0 **** -0.24
422 H 17.362091464784726 122.79633967915912 63.85692451826364 H 0.0 **** 0.06
423 H 16.478481678726553 121.27126908560642 64.10063064542487 H 0.0 **** 0.06
424 H 15.755653500784973 122.57271028186138 63.125195601082325 H 0.0 **** 0.06
425 H 15.911637345817326 122.76383257068024 64.88867956006355 H 0.0 **** 0.06
426 C 37.181121167747264 94.19564320025876 163.66553190670928 C 0.0 **** -0.24
427 H 37.88822184182723 95.02506607940887 163.67955646302667 H 0.0 **** 0.06
428 H 37.293018237442155 93.63891421102926 162.73448557512612 H 0.0 **** 0.06
429 H 36.165507396359146 94.58381970438768 163.73654605897772 H 0.0 **** 0.06
430 H 37.37909852553172 93.5362239935381 164.50952929757543 H 0.0 **** 0.06
431 C 165.34266422978556 96.7423167298598 132.26546495341256 C 0.0 **** -0.24
432 H 165.93789650372236 97.64064039840906 132.10464061970157 H 0.0 **** 0.06
433 H 164.99182241313605 96.71989639305025 133.29775693682785 H 0.0 **** 0.06
434 H 165.95444997057461 95.86119868081107 132.0705019619171 H 0.0 **** 0.06
435 H 164.48666439746398 96.74825430371118 131.5912940736485 H 0.0 **** 0.06
436 C 159.4976003746246 144.44677650617888 25.094475217729155 C 0.0 **** -0.24
437 H 160.1594011463524 143.83526675651188 25.70747678197955 H 0.0 **** 0.06
438 H 160.0078584795628 145.36987331055434 24.817330222391433 H 0.0 **** 0.06
439 H 158.59681391356224 144.68544813741818 25.660786079012155 H 0.0 **** 0.06
440 H 159.22532305879068 143.89619447893148 24.194006529653677 H 0.0 **** 0.06
441 C 101.72401532063793 36.28315510432395 63.07293228020414 C 0.0 **** -0.24
442 H 102.01202147028545 37.25752985871571 62.67968219217005 H 0.0 **** 0.06
443 H 101.83159647780502 36.28370338350757 64.1585290775811 H 0.0 **** 0.06
444 H 102.36637877870834 35.51402083086805 62.64413743485534 H 0.0 **** 0.06
445 H 100.68621823476764 36.07660545763571 62.810928805222915 H 0.0 **** 0.06
446 C 95.39829195220675 103.6655812781032 75.89954852318061 C 0.0 **** -0.24
447 H 95.7806997888204 104.52646231468167 75.35159648307729 H 0.0 **** 0.06
448 H 95.95467861844757 103.55051342257572 76.83017500491968 H 0.0 **** 0.06
449 H 95.51462791830384 102.76750466297698 75.29235933050711 H 0.0 **** 0.06
450 H 94.34225595946374 103.81823289336656 76.12423464149538 H 0.0 **** 0.06
451 C 2.7149907125646564 102.99342760409287 24.292472466206732 C 0.0 **** -0.24
452 H 1.946550708489582 102.85993130006723 23.53050194158277 H 0.0 **** 0.06
453 H 2.9142802836369697 102.03816554917829 24.778859610495743 H 0.0 **** 0.06
454 H 2.3711640214818885 103.71474521426121 25.032855096942512 H 0.0 **** 0.06
455 H 3.628413698859873 103.36038922128553 23.824127519666547 H 0.0 **** 0.06
456 C 137.89351548687029 60.31577064985859 103.17584792373155 C 0.0 **** -0.24
457 H 137.75921428896652 59.308909649126946 103.57145439715963 H 0.0 **** 0.06
458 H 138.95011913693207 60.582609629674096 103.21338552514307 H 0.0 **** 0.06
459 H 137.31935830177196 61.02156845379051 103.77549809868644 H 0.0 **** 0.06
460 H 137.54613191117858 60.34880532929162 102.14312350304998 H 0.0 **** 0.06
461 C 129.56106910810882 163.0018760268117 57.66917844542269 C 0.0 **** -0.24
462 H 129.48368535181794 163.96464729849558 58.17279591680415 H 0.0 **** 0.06
463 H 130.18622504046175 162.33224940539827 58.2601019759922 H 0.0 **** 0.06
464 H 130.00810732349345 163.1418122836252 56.684762856833856 H 0.0 **** 0.06
465 H 128.5671476292507 162.568774613666 57.558595387409525 H 0.0 **** 0.06
466 C 0.8334234218502274 52.335303924139566 133.5712203929038 C 0.0 **** -0.24
467 H -0.05405877599613973 52.835246089211694 133.96003854993228 H 0.0 **** 0.06
468 H 0.8193463374108205 52.36479258136518 132.48168901698756 H 0.0 **** 0.06
469 H 0.8411445122325176 51.298091159643434 133.90670874898825 H 0.0 **** 0.06
470 H 1.7258321165867585 52.84213420880411 133.9381919766571 H 0.0 **** 0.06
471 C 92.30510504603097 166.55820969204052 145.71256491609873 C 0.0 **** -0.24
472 H 93.37649836472838 166.65522213125482 145.88863680855414 H 0.0 **** 0.06
473 H 92.11261678817874 166.55557160744644 144.63957019052907 H 0.0 **** 0.06
474 H 91.78390853263886 167.3960888816076 146.1738706514929 H 0.0 **** 0.06
475 H 91.9491824936174 165.62431241307397 146.14785261135324 H 0.0 **** 0.06
476 C 43.30510769062539 176.98901110300199 14.212761583244514 C 0.0 **** -0.24
477 H 43.11852162172795 178.04852648843143 14.387175295063088 H 0.0 **** 0.06
478 H 43.74600594480086 176.85554979744433 13.224324331810521 H 0.0 **** 0.06
479 H 42.36412262731892 176.44050510287408 14.267958256417614 H 0.0 **** 0.06
480 H 43.991188678287415 176.6112764485972 14.970804306584512 H 0.0 **** 0.06
481 C 92.36080715460425 57.504454585467954 27.298685931970795 C 0.0 **** -0.24
482 H 92.53129778955049 58.2306748792667 26.503515253601506 H 0.0 **** 0.06
483 H 91.36420731053308 57.65167014418472 27.715970865487748 H 0.0 **** 0.06
484 H 93.10718719469408 57.64043471582039 28.0810602623136 H 0.0 **** 0.06
485 H 92.438931297027 56.49680165022414 26.89189173929023 H 0.0 **** 0.06
486 C 148.4734106796791 62.70898378716322 131.75017000493034 C 0.0 **** -0.24
487 H 148.4224785244842 63.45281166060833 132.54529287171619 H 0.0 **** 0.06
488 H 147.4646876575324 62.45001997141287 131.430379543831 H 0.0 **** 0.06
489 H 148.97898382091864 61.81751160282769 132.11941988143798 H 0.0 **** 0.06
490 H 149.0296647182846 63.11794724313047 130.90644510290468 H 0.0 **** 0.06
491 C 118.1252300207916 62.68171554629389 172.3444752535689 C 0.0 **** -0.24
492 H 117.6661613224586 63.59541569319485 172.72133374549006 H 0.0 **** 0.06
493 H 119.1514097905677 62.614211361539844 172.70878924360937 H 0.0 **** 0.06
494 H 118.12697949666153 62.698691462736136 171.2540830538998 H 0.0 **** 0.06
495 H 117.55867193087721 61.81932424114311 172.69399420918364 H 0.0 **** 0.06
496 C 151.25549317680776 76.13592972921745 154.1017482470613 C 0.0 **** -0.24
497 H 150.86950724662108 75.95283249562873 155.10467428351845 H 0.0 **** 0.06
498 H 150.611016616468 75.64847707168015 153.37048206886473 H 0.0 **** 0.06
499 H 152.26512680257855 75.73378281553953 154.02207298017203 H 0.0 **** 0.06
500 H 151.27606716271134 77.20922350303637 153.9105243721159 H 0.0 **** 0.06
501 C 176.25523884736114 157.7043039440672 51.58413646370589 C 0.0 **** -0.24
502 H 176.26554526257183 158.22219121778255 52.542881423538645 H 0.0 **** 0.06
503 H 177.10698930815386 158.02918799527043 50.986847705118535 H 0.0 **** 0.06
504 H 175.33020070260446 157.9363898220028 51.05564525467604 H 0.0 **** 0.06
505 H 176.31752503433316 156.62888146717563 51.751615713873306 H 0.0 **** 0.06
506 C 145.80363349860522 87.68185230717363 40.08612247528191 C 0.0 **** -0.24
507 H 145.25867505145044 87.3074099366142 40.95270055386017 H 0.0 **** 0.06
508 H 145.12689598717412 87.75231367273774 39.23433323536915 H 0.0 **** 0.06
509 H 146.6187800724402 86.99922408364812 39.84706992413042 H 0.0 **** 0.06
510 H 146.20937484813598 88.66834205362376 40.31096310009487 H 0.0 **** 0.06
511 C 155.15139585252788 100.57499714845085 115.52494810369318 C 0.0 **** -0.24
512 H 155.69310598404326 101.52032316592664 115.56636349607665 H 0.0 **** 0.06
513 H 154.50566525231974 100.48679188965406 116.39918160253099 H 0.0 **** 0.06
514 H 155.86276326307046 99.74987517727703 115.51361338496638 H 0.0 **** 0.06
515 H 154.5445215985671 100.54429142850256 114.62031052451421 H 0.0 **** 0.06
516 C 87.78232082933647 181.80684532059348 81.67477483177659 C 0.0 **** -0.24
517 H 87.74826939414106 181.53215795209212 82.72894782868514 H 0.0 **** 0.06
518 H 88.71950180571429 182.32427942663443 81.46545170799601 H 0.0 **** 0.06
519 H 86.94433955005854 182.4644252895567 81.44330490781417 H 0.0 **** 0.06
520 H 87.71986981018927 180.90749225390968 81.06227643206931 H 0.0 **** 0.06
521 C 103.1679576981182 36.70168675590055 36.6506748343827 C 0.0 **** -0.24
522 H 102.42822694281513 36.060555635205404 37.130385857461306 H 0.0 **** 0.06
523 H 103.29027702629973 36.39977058460293 35.61084410179768 H 0.0 **** 0.06
524 H 104.12184631496224 36.607410220589216 37.17123688270016 H 0.0 **** 0.06
525 H 102.83213410465446 37.73728339558622 36.69259678347635 H 0.0 **** 0.06
526 C 5.849545392150894 180.7067825413093 110.49553890642466 C 0.0 **** -0.24
527 H 5.73135408869846 181.53981730015354 109.80289306690997 H 0.0 **** 0.06
528 H 6.853929993295914 180.726642005242 110.91869436413447 H 0.0 **** 0.06
529 H 5.6982296683969835 179.76761490670356 109.96341949443723 H 0.0 **** 0.06
530 H 5.115766485496287 180.79224909872386 111.29677191701114 H 0.0 **** 0.06
531 C 67.59552282847275 14.82883677498441 77.21683721724429 C 0.0 **** -0.24
532 H 67.65389309604467 14.714524488823457 78.29895364361084 H 0.0 **** 0.06
533 H 67.57713190587211 15.889414989554496 76.96459526002945 H 0.0 **** 0.06
534 H 66.68777642953926 14.35097894271339 76.84904553880733 H 0.0 **** 0.06
535 H 68.46542985247154 14.360648617001551 76.7553645732541 H 0.0 **** 0.06
536 C 9.510261864528161 26.245526664147462 138.77560283231657 C 0.0 **** -0.24
537 H 8.727520331191329 25.961666940440068 138.07202148161974 H 0.0 **** 0.06
538 H 9.4943310509845 27.326607882662785 138.91942567563348 H 0.0 **** 0.06
539 H 10.480824420744398 25.946582034858807 138.3787013133026 H 0.0 **** 0.06
540 H 9.33854849058281 25.74840268798303 139.72949884029237 H 0.0 **** 0.06
541 C 91.14037349151852 56.04739290748695 59.75387370029 C 0.0 **** -0.24
542 H 91.54929599817575 55.96545504553049 58.747127000301475 H 0.0 **** 0.06
543 H 91.85324652188939 56.56647748915441 60.39511438893129 H 0.0 **** 0.06
544 H 90.95362054958724 55.04937707315882 60.150995985101645 H 0.0 **** 0.06
545 H 90.20518986002224 56.6060163788847 59.7212892617797 H 0.0 **** 0.06
546 C 139.41941812129772 146.62441053501675 97.4576419168925 C 0.0 **** -0.24
547 H 140.45504975880152 146.91531432913789 97.28435477207762 H 0.0 **** 0.06
548 H 139.33157181027082 145.5396138656049 97.39262199399695 H 0.0 **** 0.06
549 H 138.7816952804821 147.08730134019004 96.70433450811146 H 0.0 **** 0.06
550 H 139.11030153231962 146.95571462798563 98.44913770734081 H 0.0 **** 0.06
551 C 153.9010426084206 158.45693852854384 77.67974152618535 C 0.0 **** -0.24
552 H 153.43715805391926 158.4746334025932 78.66558652272886 H 0.0 **** 0.06
553 H 153.14120628548832 158.63218576942245 76.917891449438 H 0.0 **** 0.06
554 H 154.36428700139163 157.48419204120023 77.51375576206107 H 0.0 **** 0.06
555 H 154.6606198874457 159.2364600564096 77.62139852435627 H 0.0 **** 0.06
556 C 130.33309459503556 30.138112327953465 17.856855999046047 C 0.0 **** -0.24
557 H 130.28900415675963 30.09371297364615 16.76907473835672 H 0.0 **** 0.06
558 H 129.96290202204847 31.104587763757948 18.19682955602815 H 0.0 **** 0.06
559 H 131.3654864445976 30.00766042578657 18.183312376043432 H 0.0 **** 0.06
560 H 129.71558001647065 29.343595083400814 18.277680779061768 H 0.0 **** 0.06
561 C 62.091481654330494 160.91529441401715 11.816313618733027 C 0.0 **** -0.24
562 H 62.84787970613428 160.85331048394335 12.5987810916398 H 0.0 **** 0.06
563 H 62.44796227049022 160.39999411779414 10.924200650809304 H 0.0 **** 0.06
564 H 61.89917126616808 161.96111698609425 11.579218285797815 H 0.0 **** 0.06
565 H 61.17048423156871 160.4461233494005 12.16369906122732 H 0.0 **** 0.06
566 C 146.420959098237 172.3936001013708 174.86653876588286 C 0.0 **** -0.24
567 H 146.56761509197867 171.5343763661316 175.51981123344666 H 0.0 **** 0.06
568 H 146.2294043665007 172.0485791232371 173.84957971164138 H 0.0 **** 0.06
569 H 147.31663314132075 173.01413520978025 174.8768602825782 H 0.0 **** 0.06
570 H 145.56964120563634 172.97745211723046 175.21860561887297 H 0.0 **** 0.06
571 C 164.52506702048774 168.82760317364227 15.905396224756167 C 0.0 **** -0.24
572 H 163.76895975942966 169.6117100619656 15.93542194552203 H 0.0 **** 0.06
573 H 164.09479907440056 167.89469286936838 16.26991402609218 H 0.0 **** 0.06
574 H 165.36853233500986 169.11064845126617 16.53494605739916 H 0.0 **** 0.06
575 H 164.8678623828628 168.69270642027436 14.879167893836694 H 0.0 **** 0.06
576 C 42.890468940811516 147.56027371401825 82.78563774784675 C 0.0 **** -0.24
577 H 43.069174655613764 147.27994456319166 81.74825490489393 H 0.0 **** 0.06
578 H 42.52386377211941 146.6948219748241 83.33890380989813 H 0.0 **** 0.06
579 H 42.14723398828703 148.35746657663103 82.8237394487863 H 0.0 **** 0.06
580 H 43.82093768493782 147.90990842541123 83.23233208901264 H 0.0 **** 0.06
581 C 125.29626467833133 71.21997162016997 105.13980945495028 C 0.0 **** -0.24
582 H 125.78608298888595 71.33486298703527 104.17241481921631 H 0.0 **** 0.06
583 H 126.02395538629649 70.88009443177205 105.87646750588921 H 0.0 **** 0.06
584 H 124.49378171335961 70.48752256604669 105.05537116612273 H 0.0 **** 0.06
585 H 124.88186623933773 72.17768488351204 105.45263299946843 H 0.0 **** 0.06
586 C 62.93889764895948 7.9155797521602835 179.2963187853485 C 0.0 **** -0.24
587 H 63.91197286266856 8.226898832776214 178.9153523272406 H 0.0 **** 0.06
588 H 62.92321894491707 6.83293117769847 179.41282008319337 H 0.0 **** 0.06
589 H 62.1610927793533 8.218365000994822 178.59473196931123 H 0.0 **** 0.06
590 H 62.760271504279984 8.388579774727305 180.26190774538694 H 0.0 **** 0.06
591 C 45.42523940494357 118.24576567067514 178.91635560276134 C 0.0 **** -0.24
592 H 46.40856143664675 118.58368334785588 179.24523220197807 H 0.0 **** 0.06
593 H 44.714488085505536 118.34419930043033 179.73616516422044 H 0.0 **** 0.06
594 H 45.48407307225719 117.20222574444368 178.60806779930735 H 0.0 **** 0.06
595 H 45.09504296674805 118.85511695922044 178.07426492117176 H 0.0 **** 0.06
596 C 99.42170438774953 157.56681381742882 4.904996940308045 C 0.0 **** -0.24
597 H 100.2238812547766 157.0333654693808 4.394738667458427 H 0.0 **** 0.06
598 H 98.8804844911913 156.8754833911381 5.551635673008711 H 0.0 **** 0.06
599 H 98.73744731276942 157.9855232799537 4.166683986584438 H 0.0 **** 0.06
600 H 99.84517785548134 158.3714489338683 5.505222638235779 H 0.0 **** 0.06
601 C 15.943278305207002 71.83767242984231 11.418175351741866 C 0.0 **** -0.24
602 H 15.522417848922032 72.11683370669665 12.384584086834934 H 0.0 **** 0.06
603 H 15.977196765203303 70.75129040919235 11.337162991691713 H 0.0 **** 0.06
604 H 16.952578366004104 72.24010914224601 11.332493147796242 H 0.0 **** 0.06
605 H 15.321107776888198 72.2429979632423 10.620622599004633 H 0.0 **** 0.06
606 C 28.647711092646006 54.258011586388875 37.97419710284177 C 0.0 **** -0.24
607 H 28.92064760346352 55.17960956206652 37.45934351635918 H 0.0 **** 0.06
608 H 28.70234622016551 54.41374827379559 39.050967930350396 H 0.0 **** 0.06
609 H 29.336930265004753 53.464546052897305 37.68567546285709 H 0.0 **** 0.06
610 H 27.63173319383492 53.975232674457715 37.697776461043446 H 0.0 **** 0.06
611 C 94.99463110591608 27.116294450516193 70.75261128850147 C 0.0 **** -0.24
612 H 94.38672753888227 27.987941112020735 70.51278492945656 H 0.0 **** 0.06
613 H 95.22764910307507 27.116891369981545 71.81720915114325 H 0.0 **** 0.06
614 H 95.92162637667764 27.150947318661707 70.17818777854436 H 0.0 **** 0.06
615 H 94.44578278750811 26.20998320181414 70.49980945196529 H 0.0 **** 0.06
616 C 109.29022025362873 109.95043295240687 71.69209211333543 C 0.0 **** -0.24
617 H 108.89477653906219 110.9643759129933 71.74101320847183 H 0.0 **** 0.06
618 H 110.37919127028361 109.98717087756414 71.65089948302148 H 0.0 **** 0.06
619 H 108.90939910867674 109.45497427787096 70.79815735161833 H 0.0 **** 0.06
620 H 108.97687028015177 109.39515366886924 72.57615776386876 H 0.0 **** 0.06
621 C 98.75597356250732 20.216385971532162 159.91995126917752 C 0.0 **** -0.24
622 H 98.91281777404039 19.328914319657116 160.53160172463706 H 0.0 **** 0.06
623 H 97.70351012412969 20.50000243396815 159.95473354367678 H 0.0 **** 0.06
624 H 99.04059629305245 20.0016864585632 158.88981565279457 H 0.0 **** 0.06
625 H 99.36609062416328 21.035033234473588 160.3021648264235 H 0.0 **** 0.06
626 C 73.6086737230926 87.55551919013756 154.45846222308103 C 0.0 **** -0.24
627 H 73.35673230602974 87.45713874494398 155.5140692322043 H 0.0 **** 0.06
628 H 72.71142818624185 87.4093561909172 153.85615979559304 H 0.0 **** 0.06
629 H 74.351909555987 86.8037719465536 154.19081325928778 H 0.0 **** 0.06
630 H 74.01389496801659 88.5494716249162 154.27280763388512 H 0.0 **** 0.06
631 C 154.648216885385 171.0561444946205 22.67347533310621 C 0.0 **** -0.24
632 H 154.49832227049973 172.06300766216503 22.283277256178607 H 0.0 **** 0.06
633 H 153.87993385236928 170.83817727291853 23.417023513927347 H 0.0 **** 0.06
634 H 155.63193838104354 170.98923514494575 23.13788734331733 H 0.0 **** 0.06
635 H 154.58073887885948 170.33685508116844 21.858159574538334 H 0.0 **** 0.06
636 C 35.92440652422482 47.1958890953901 159.8683606769376 C 0.0 **** -0.24
637 H 35.00069523847549 46.647258615236154 159.68693466832633 H 0.0 **** 0.06
638 H 36.715220542166605 46.49585802431372 160.13832374279124 H 0.0 **** 0.06
639 H 35.77213307161833 47.90488318906125 160.68180921283619 H 0.0 **** 0.06
640 H 36.2092313533316 47.735575280912144 158.96416598170714 H 0.0 **** 0.06
641 C 161.36348778364868 138.44637733532124 160.71713001175675 C 0.0 **** -0.24
642 H 160.74111175335054 137.8186147210747 161.35550729955318 H 0.0 **** 0.06
643 H 160.74845151240726 139.22042813482574 160.25868252772221 H 0.0 **** 0.06
644 H 161.81894849970217 137.83392389649623 159.9391977041349 H 0.0 **** 0.06
645 H 162.14636103057597 138.91092798054274 161.31748704370364 H 0.0 **** 0.06
646 C 0.7545330026719625 87.03575505191418 172.45168090295684 C 0.0 **** -0.24
647 H 1.3862458389045287 87.5731400494949 173.15915219318433 H 0.0 **** 0.06
648 H -0.14604800863116907 87.6168989070407 172.2536909491824 H 0.0 **** 0.06
649 H 0.4785737900539857 86.06886484306199 172.87249582729834 H 0.0 **** 0.06
650 H 1.3005702806023578 86.88296102536515 171.52028857861802 H 0.0 **** 0.06
651 C 36.820939261374946 99.00863175505505 92.41130439703049 C 0.0 **** -0.24
652 H 36.014975000248455 98.5553511022055 92.9884773558998 H 0.0 **** 0.06
653 H 37.734351268426494 98.42956081629656 92.54816462951813 H 0.0 **** 0.06
654 H 36.982975467278806 100.0302671678008 92.75249008344618 H 0.0 **** 0.06
655 H 36.54993235239007 99.01605452903378 91.3551720468809 H 0.0 **** 0.06
656 C 156.72203682555107 29.244194765870105 147.12008488172035 C 0.0 **** -0.24
657 H 157.5294777725549 29.274425278469607 146.38814184492153 H 0.0 **** 0.06
658 H 156.88425800580598 28.412177741493863 147.80644365194314 H 0.0 **** 0.06
659 H 155.77042790021713 29.110749072581726 146.60566184488488 H 0.0 **** 0.06
660 H 156.70398362362636 30.17942697093534 147.68009218513177 H 0.0 **** 0.06
661 C 20.607113426005895 113.2637742784869 99.40380012701775 C 0.0 **** -0.24
662 H 20.188663361545515 112.2881060315628 99.15538637046325 H 0.0 **** 0.06
663 H 20.32095108968216 113.98714455625456 98.63861715222458 H 0.0 **** 0.06
664 H 21.693807503699432 113.19218596371998 99.44807715414692 H 0.0 **** 0.06
665 H 20.223807488555096 113.58738785823688 100.37101579538802 H 0.0 **** 0.06
666 C 7.080958883542991 9.098552826377507 181.58606183742796 C 0.0 **** -0.24
667 H 7.313264074126721 8.042468603931432 181.72623600470914 H 0.0 **** 0.06
668 H 8.006920613807182 9.6736951370696 181.56003149409747 H 0.0 **** 0.06
669 H 6.4601390168171235 9.445983679616326 182.4118498594201 H 0.0 **** 0.06
670 H 6.544347852028892 9.231004859599196 180.64655376153746 H 0.0 **** 0.06
671 C 150.10962542324648 131.95400064808393 48.21574866343053 C 0.0 **** -0.24
672 H 150.55002689941352 132.2030495185371 47.25034690244917 H 0.0 **** 0.06
673 H 150.89176137458338 131.6192320043233 48.89660081611913 H 0.0 **** 0.06
674 H 149.3757008383369 131.1581726537911 48.086103426254084 H 0.0 **** 0.06
675 H 149.62002664452746 132.83538182130485 48.62992933195403 H 0.0 **** 0.06
676 C 1.272957337118072 74.55599177721201 22.14150122228577 C 0.0 **** -0.24
677 H 0.7217427146495083 75.47618854675447 21.947159474056875 H 0.0 **** 0.06
678 H 0.5741610157417938 73.72411967074136 22.22550030065605 H 0.0 **** 0.06
679 H 1.832369330862548 74.65683270156396 23.07205896678161 H 0.0 **** 0.06
680 H 1.9653811954885327 74.3680076901384 21.32076280234824 H 0.0 **** 0.06
681 C 16.69569250760415 109.61315855072304 115.39779342065141 C 0.0 **** -0.24
682 H 16.247331546145517 108.63467425263404 115.57094161784549 H 0.0 **** 0.06
683 H 17.24068161031886 109.92533019081937 116.28933093413805 H 0.0 **** 0.06
684 H 15.911702372245202 110.33824725610894 115.17874729090137 H 0.0 **** 0.06
685 H 17.382888808789147 109.55421356636238 114.55354813365953 H 0.0 **** 0.06
686 C 107.4979751590181 51.67519094193729 123.82200140435761 C 0.0 **** -0.24
687 H 108.54542958217343 51.58925128649581 123.53212560003713 H 0.0 **** 0.06
688 H 107.38439646886212 52.49288173787289 124.53461422846918 H 0.0 **** 0.06
689 H 107.17012330449506 50.743829592405504 124.28323621477485 H 0.0 **** 0.06
690 H 106.89226434328498 51.876973342550556 122.93845817542406 H 0.0 **** 0.06
691 C 173.08399447045716 181.20300281478671 33.523729176318426 C 0.0 **** -0.24
692 H 172.5531152401574 180.64647908394204 34.29632218152767 H 0.0 **** 0.06
693 H 173.99399369272984 180.66891466138884 33.25162881721997 H 0.0 **** 0.06
694 H 173.34159642990775 182.1932558722841 33.9010016313085 H 0.0 **** 0.06
695 H 172.44532369122322 181.30440360430248 32.645622743524 H 0.0 **** 0.06
696 C 144.84145497216673 97.79893978977627 141.90823483166292 C 0.0 **** -0.24
697 H 145.7417271824858 97.63545383145923 141.31622668827936 H 0.0 **** 0.06
698 H 144.03317003616698 97.18098373736969 141.51616830321467 H 0.0 **** 0.06
699 H 144.55688334969784 98.84915072141335 141.85328644369162 H 0.0 **** 0.06
700 H 145.03551682287323 97.52776656055151 142.94583081932785 H 0.0 **** 0.06
701 C 118.45908791445181 87.60219956882975 50.51468225445109 C 0.0 **** -0.24
702 H 119.40440256149888 87.32646952955884 50.98047457926185 H 0.0 **** 0.06
703 H 117.7853479864569 86.744983397753 50.523068333495644 H 0.0 **** 0.06
704 H 118.63828954248525 87.91248288157925 49.485285147300544 H 0.0 **** 0.06
705 H 118.0074073049381 88.42517451644329 51.06885933224817 H 0.0 **** 0.06
706 C 153.0425679753271 131.11143686562917 106.559831782478 C 0.0 **** -0.24
707 H 152.49123559144235 130.5185653760123 107.29049407990703 H 0.0 **** 0.06
708 H 152.6026203577381 130.97060787505927 105.57261972356696 H 0.0 **** 0.06
709 H 154.08412824002656 130.78857612984638 106.54375216059691 H 0.0 **** 0.06
710 H 152.9920240294368 132.16477023827122 106.83404603813904 H 0.0 **** 0.06
711 C 182.70608418713368 158.92106419991887 151.3202023238262 C 0.0 **** -0.24
712 H 182.86988146749047 158.745136510008 150.25684806865706 H 0.0 **** 0.06
713 H 183.2083701334107 158.14448908542377 151.8978573300847 H 0.0 **** 0.06
714 H 181.63656903004357 158.89641197462657 151.53119043159617 H 0.0 **** 0.06
715 H 183.1083492818969 159.89536990832914 151.5941922785743 H 0.0 **** 0.06
716 C 125.41833329430933 20.02916503252502 155.6864119816301 C 0.0 **** -0.24
717 H 126.07466468185869 20.192674206603378 156.5409271734514 H 0.0 **** 0.06
718 H 125.05495676598285 19.0006735848077 155.69879142123295 H 0.0 **** 0.06
719 H 125.97084674595051 20.207489471374565 154.76438344553486 H 0.0 **** 0.06
720 H 124.57204155236418 20.714022860086963 155.74183230224781 H 0.0 **** 0.06
721 C 50.466077715407266 77.0940164981921 123.12060413780411 C 0.0 **** -0.24
722 H 51.22801001945527 77.86816871524206 123.02647716403804 H 0.0 **** 0.06
723 H 50.354583122563554 76.57620188456372 122.16735056534539 H 0.0 **** 0.06
724 H 49.51603390431845 77.55179866859157 123.39984176887383 H 0.0 **** 0.06
725 H 50.765228311431144 76.38185936478726 123.88971694079059 H 0.0 **** 0.06
726 C 43.31829399580815 124.41160403173596 41.33309400654707 C 0.0 **** -0.24
727 H 43.63984584742073 125.0573300958889 42.15059424135919 H 0.0 **** 0.06
728 H 43.56064764665956 124.8844472848141 40.38064749205003 H 0.0 **** 0.06
729 H 42.241554755432134 124.25349620831501 41.3970071995376 H 0.0 **** 0.06
730 H 43.831574193929896 123.4527844451424 41.40380322888899 H 0.0 **** 0.06
731 C 171.53091271332642 36.93842945981187 159.72697294944015 C 0.0 **** -0.24
732 H 171.00047340414596 36.84236336464039 160.6746526539932 H 0.0 **** 0.06
733 H 172.58966243134182 36.72984219306035 159.88112791358944 H 0.0 **** 0.06
734 H 171.41164797042848 37.95285252239847 159.34580743963264 H 0.0 **** 0.06
735 H 171.1208987367603 36.22926090138337 159.00822762164844 H 0.0 **** 0.06
736 C 85.96395054020786 120.59943440380304 97.7151854168191 C 0.0 **** -0.24
737 H 86.91602851789844 120.0727292467352 97.78180801253849 H 0.0 **** 0.06
738 H 85.84672142499176 121.0106218458828 96.71135244043897 H 0.0 **** 0.06
739 H 85.94467416494092 121.40882804539716 98.44473713428876 H 0.0 **** 0.06
740 H 85.1498325099355 119.90481255521188 97.92032845327923 H 0.0 **** 0.06
741 C 24.08024469268372 104.36911368315208 130.4079475274513 C 0.0 **** -0.24
742 H 24.240482929256814 105.21568037290837 131.07620565930017 H 0.0 **** 0.06
743 H 24.47018679221739 104.6088991799636 129.41867737205632 H 0.0 **** 0.06
744 H 23.01239175367641 104.15899011462005 130.33774366955276 H 0.0 **** 0.06
745 H 24.59682008055421 103.49367846511768 130.80094294793503 H 0.0 **** 0.06
746 C 150.83429356184917 61.173210369856804 117.04201208120816 C 0.0 **** -0.24
747 H 149.90389321751866 61.54468864950367 117.4728559961506 H 0.0 **** 0.06
748 H 151.15219511283036 61.83715390490454 116.23792815675597 H 0.0 **** 0.06
749 H 150.67641373086326 60.17046612489773 116.6458047060895 H 0.0 **** 0.06
750 H 151.60403516923282 61.14278285106775 117.8130505905525 H 0.0 **** 0.06
751 C 168.59544170734563 80.62916460566817 12.18236152709833 C 0.0 **** -0.24
752 H 168.80884950394608 81.35370902134514 11.396058861438554 H 0.0 **** 0.06
753 H 168.71267189420573 79.61929825279674 11.787795405448833 H 0.0 **** 0.06
754 H 167.57296113525646 80.76585205662809 12.534969514915133 H 0.0 **** 0.06
755 H 169.28855046822542 80.77857969727887 13.01150975953015 H 0.0 **** 0.06
756 C 100.08904438351453 76.85537477589517 24.80012306999555 C 0.0 **** -0.24
757 H 99.72951570905832 77.62618760113881 25.481032063850705 H 0.0 **** 0.06
758 H 99.7322579091271 75.8806967654417 25.13472369650347 H 0.0 **** 0.06
759 H 101.17904085057205 76.85950022180418 24.79012065168787 H 0.0 **** 0.06
760 H 99.71473547324615 77.05483371750393 23.79649399991864 H 0.0 **** 0.06
761 C 93.80803781423559 127.29420053952839 17.05430747326865 C 0.0 **** -0.24
762 H 93.07566329621689 126.83522424939798 17.71900418023081 H 0.0 **** 0.06
763 H 93.29034053096929 127.79678943829299 16.23720448774806 H 0.0 **** 0.06
764 H 94.46419494277781 126.52386667263443 16.650339781760984 H 0.0 **** 0.06
765 H 94.39911783104101 128.02018910629312 17.61223969901235 H 0.0 **** 0.06
766 C 163.59062157976513 111.21103464680614 110.6126621571682 C 0.0 **** -0.24
767 H 163.8288227462644 112.0814818080474 111.22352817682442 H 0.0 **** 0.06
768 H 163.346836879202 110.36754171389664 111.26000217682828 H 0.0 **** 0.06
769 H 164.44896104389898 110.95616916336876 109.99190029715832 H 0.0 **** 0.06
770 H 162.73583246701924 111.43816040046708 109.97471869912069 H 0.0 **** 0.06
771 C 99.066693578347 34.863265276452765 83.29852919562646 C 0.0 **** -0.24
772 H 98.81115485286163 35.91849120408163 83.1948151625766 H 0.0 **** 0.06
773 H 100.0034272641049 34.66408411559182 82.77742244551666 H 0.0 **** 0.06
774 H 98.27315335215557 34.253944291070226 82.86707098734462 H 0.0 **** 0.06
775 H 99.17826132181854 34.61862795864447 84.35501374036964 H 0.0 **** 0.06
776 C 180.969023007541 184.65365761323895 94.99842283974635 C 0.0 **** -0.24
777 H 180.23188893024462 183.85673241477497 94.90881869136268 H 0.0 **** 0.06
778 H 180.76189960901894 185.24178269587023 95.8921516209515 H 0.0 **** 0.06
779 H 180.91600025072904 185.2967650173398 94.11938026836987 H 0.0 **** 0.06
780 H 181.9664073514407 184.22020215658003 95.0710465045509 H 0.0 **** 0.06
781 C 88.06814767512235 88.62926517715566 126.55307307015697 C 0.0 **** -0.24
782 H 88.87607157277797 89.2862098826234 126.87441709119723 H 0.0 **** 0.06
783 H 87.74314248994291 88.9146478428252 125.5523574577664 H 0.0 **** 0.06
784 H 87.23123027841866 88.71777215752546 127.24607679239197 H 0.0 **** 0.06
785 H 88.42218332084418 87.59831107455555 126.54043306740842 H 0.0 **** 0.06
786 C 178.2434350622514 146.22246794486028 109.67386556192169 C 0.0 **** -0.24
787 H 178.05534100832602 146.62668874667258 110.66834408107765 H 0.0 **** 0.06
788 H 177.90171008068478 146.93455937523876 108.92191328674129 H 0.0 **** 0.06
789 H 177.7054520733418 145.28253910789928 109.55620752123546 H 0.0 **** 0.06
790 H 179.31274477893567 146.0476187910678 109.54960817019715 H 0.0 **** 0.06
791 C 40.044562286924815 3.318692841827392 182.734322987075 C 0.0 **** -0.24
792 H 40.021823550876604 2.4512007542014587 183.39342144360424 H 0.0 **** 0.06
793 H 40.48899537104933 3.038467389968801 181.77974283196315 H 0.0 **** 0.06
794 H 40.63792282415008 4.109321677952366 183.1938093137764 H 0.0 **** 0.06
795 H 39.027667696872015 3.6766514652140145 182.5712451001014 H 0.0 **** 0.06
796 C 155.40186957431123 64.50220834733682 61.30402587240802 C 0.0 **** -0.24
797 H 155.1209995754279 64.17285380364069 62.304812069400896 H 0.0 **** 0.06
798 H 154.56119330640445 65.02355888326571 60.84536214527432 H 0.0 **** 0.06
799 H 155.66608359649547 63.635245046836246 60.69840474332621 H 0.0 **** 0.06
800 H 156.25681504962185 65.175010209079 61.36830839739815 H 0.0 **** 0.06
801 C 40.63423659380274 112.04968014608596 129.91424985523582 C 0.0 **** -0.24
802 H 40.66249505637421 111.16543531575627 129.27721381822977 H 0.0 **** 0.06
803 H 41.64874979678628 112.32145085989805 130.20494383674287 H 0.0 **** 0.06
804 H 40.04460534999063 111.83605565501222 130.8061147282474 H 0.0 **** 0.06
805 H 40.17867363936696 112.87595465313979 129.36840995252777 H 0.0 **** 0.06
806 C 42.27095819952871 84.44427245442812 107.61013442744435 C 0.0 **** -0.24
807 H 42.9459943566892 85.19620307233197 108.01825436578734 H 0.0 **** 0.06
808 H 42.22602049224051 84.54657831252695 106.5258058421672 H 0.0 **** 0.06
809 H 41.2745074962902 84.58464460313517 108.02939929182328 H 0.0 **** 0.06
810 H 42.63659034156791 83.45035583913285 107.86712907611484 H 0.0 **** 0.06
811 C 88.30320326987025 95.79498025076356 176.14283590793744 C 0.0 **** -0.24
812 H 88.37396751627811 96.73881920109676 176.6831837712636 H 0.0 **** 0.06
813 H 87.58426048336666 95.89500191423707 175.32969920411176 H 0.0 **** 0.06
814 H 87.97418945815441 95.00946701895367 176.82360771487987 H 0.0 **** 0.06
815 H 89.28089370396991 95.53579475399772 175.73463045018408 H 0.0 **** 0.06
816 C 84.37033899253889 150.66167435769978 38.18620880345469 C 0.0 **** -0.24
817 H 83.94189563555018 149.65995573841894 38.183672294087444 H 0.0 **** 0.06
818 H 84.76297035223561 150.89179014770588 37.19477663232681 H 0.0 **** 0.06
819 H 85.1777694025221 150.70932099912415 38.91715497354053 H 0.0 **** 0.06
820 H 83.59959666808417 151.38631326474245 38.44835586350234 H 0.0 **** 0.06
821 C 82.55579702429719 8.003271056415542 26.890636011729455 C 0.0 **** -0.24
822 H 81.58520021716859 7.957628896682536 26.396647149448114 H 0.0 **** 0.06
823 H 83.34168758977643 7.789744379006379 26.166918723885942 H 0.0 **** 0.06
824 H 82.58955081212234 7.265836462257994 27.692691663063414 H 0.0 **** 0.06
825 H 82.70545924742466 8.999430296293212 27.306658058848328 H 0.0 **** 0.06
826 C 135.15835852320407 124.81568704882073 127.7431997294417 C 0.0 **** -0.24
827 H 135.63507218657924 123.83874674204225 127.66036800890913 H 0.0 **** 0.06
828 H 135.89424970051067 125.59534155874667 127.54657475021116 H 0.0 **** 0.06
829 H 134.75723427987947 124.93952779332056 128.74923162777156 H 0.0 **** 0.06
830 H 134.34941087916684 124.88700004365933 127.01682138132509 H 0.0 **** 0.06
831 C 87.94589328867012 166.40570165106297 47.537593661985284 C 0.0 **** -0.24
832 H 87.62637561002124 165.5748097287779 48.167591646966684 H 0.0 **** 0.06
833 H 87.09438306792883 166.77997420272055 46.97005005718927 H 0.0 **** 0.06
834 H 88.71886198927358 166.06218702836966 46.84942618330331 H 0.0 **** 0.06
835 H 88.34463868908513 167.20300898330717 48.16404115609646 H 0.0 **** 0.06
836 C 130.76985946781753 158.74676948140723 180.17817716113092 C 0.0 **** -0.24
837 H 130.38050379833464 159.3864650433548 180.97055720128387 H 0.0 **** 0.06
838 H 130.34461817907112 159.05406643658876 179.22249007678033 H 0.0 **** 0.06
839 H 130.49685716282931 157.71147414842736 180.38104328410725 H 0.0 **** 0.06
840 H 131.854546089468 158.83629396564268 180.13877394322262 H 0.0 **** 0.06
841 C 74.99998706414874 57.68530792716294 39.74535646735929 C 0.0 **** -0.24
842 H 74.31743472369124 57.39280991808039 38.94825826248112 H 0.0 **** 0.06
843 H 74.58678129554738 58.540239010153016 40.282230980914136 H 0.0 **** 0.06
844 H 75.96492503028338 57.95685295271511 39.316982343642806 H 0.0 **** 0.06
845 H 75.13152897131874 56.852007389504024 40.435692115889125 H 0.0 **** 0.06
846 C 37.18086853503195 148.11229984893032 145.8100055432832 C 0.0 **** -0.24
847 H 36.31688007492539 147.70658197386624 145.28308209017843 H 0.0 **** 0.06
848 H 37.47274333600538 149.0587324679223 145.3538457205657 H 0.0 **** 0.06
849 H 38.00880552483193 147.4069369207205 145.74645384950827 H 0.0 **** 0.06
850 H 36.92263671793229 148.27693575154814 146.8561942051914 H 0.0 **** 0.06
851 C 139.47920625218 5.4261906093583505 83.62568840767904 C 0.0 **** -0.24
852 H 139.9181445162567 6.416006840769654 83.5022040748777 H 0.0 **** 0.06
853 H 139.7280314713788 5.0390035557222035 84.61308221270092 H 0.0 **** 0.06
854 H 139.87423777549435 4.756448559976519 82.86120814688607 H 0.0 **** 0.06
855 H 138.39654457952741 5.493985356864748 83.52351739665302 H 0.0 **** 0.06
856 C 49.62306610161738 75.86480287845899 82.52384462788766 C 0.0 **** -0.24
857 H 50.68330004784531 75.88667805608031 82.27514244112172 H 0.0 **** 0.06
858 H 49.38119560558664 76.7188668983664 83.1573584044129 H 0.0 **** 0.06
859 H 49.393908664904984 74.94112458246502 83.05640792740459 H 0.0 **** 0.06
860 H 49.03390150632629 75.91251086692705 81.60846909239734 H 0.0 **** 0.06
861 C 42.157106504110516 41.30156264921719 168.2725491224027 C 0.0 **** -0.24
862 H 42.00393179139127 42.205046007405684 168.86290384294705 H 0.0 **** 0.06
863 H 41.19631382323236 40.93678756528797 167.91020134698775 H 0.0 **** 0.06
864 H 42.6255272357065 40.537921361812096 168.8939325627766 H 0.0 **** 0.06
865 H 42.80494993265975 41.52773675017866 167.42494334094755 H 0.0 **** 0.06
866 C 26.08455910217471 93.15866318453476 130.2210003723003 C 0.0 **** -0.24
867 H 26.427583394654064 92.12625552728554 130.16417525387243 H 0.0 **** 0.06
868 H 25.378985638403933 93.2623605312549 131.0463750468832 H 0.0 **** 0.06
869 H 25.59312866292815 93.43024966943528 129.2873857633213 H 0.0 **** 0.06
870 H 26.93786369136774 93.8163861975462 130.3871541721535 H 0.0 **** 0.06
871 C 172.35806544544562 159.2216155044606 6.100438545847339 C 0.0 **** -0.24
872 H 172.97287212571723 159.01620054174356 6.977021008599479 H 0.0 **** 0.06
873 H 171.54149262971742 159.8892698870908 6.378173787481842 H 0.0 **** 0.06
874 H 171.94887084549697 158.2873994514983 5.717478393553478 H 0.0 **** 0.06
875 H 172.96857873807375 159.69430288802704 5.330896132185728 H 0.0 **** 0.06
876 C 106.6629490968056 15.287087316471201 13.36483782579316 C 0.0 **** -0.24
877 H 107.67220273347392 14.917997759500452 13.547565387155544 H 0.0 **** 0.06
878 H 106.61895428738596 15.748877908625673 12.377839700242362 H 0.0 **** 0.06
879 H 106.4038145953164 16.025352481824598 14.123424147546189 H 0.0 **** 0.06
880 H 105.95825290316414 14.456688017373892 13.409722608688924 H 0.0 **** 0.06
881 C 57.52701628891849 100.0995851207165 155.3831136440882 C 0.0 **** -0.24
882 H 56.63825706577356 100.43495346487903 154.84937826125787 H 0.0 **** 0.06
883 H 58.35569715291713 100.00005041189023 154.68108639091412 H 0.0 **** 0.06
884 H 57.32810638105882 99.13429555586636 155.84876616446093 H 0.0 **** 0.06
885 H 57.78619766550061 100.82814065871541 156.15144834352344 H 0.0 **** 0.06
886 C 179.30965116758966 121.37746060140627 0.7637519275434954 C 0.0 **** -0.24
887 H 178.96532396761998 121.67397064742256 -0.22719052472321266 H 0.0 **** 0.06
888 H 180.0136147258701 122.12094977442722 1.1400663800847468 H 0.0 **** 0.06
889 H 179.80415781138078 120.40755058700607 0.7019609038125907 H 0.0 **** 0.06
890 H 178.45736071137446 121.30862300329402 1.4391700997941896 H 0.0 **** 0.06
891 C 93.21938716060755 87.05048970736799 151.9072787185945 C 0.0 **** -0.24
892 H 92.46743275166493 86.27641322732119 152.0586376272371 H 0.0 **** 0.06
893 H 92.81551909042606 87.82591904532721 151.25603506432117 H 0.0 **** 0.06
894 H 94.1047449415256 86.61219509545283 151.44568277068757 H 0.0 **** 0.06
895 H 93.48930307117907 87.48694647541025 152.8680784969647 H 0.0 **** 0.06
896 C 65.2310672915678 164.58546942771608 57.9802222126514 C 0.0 **** -0.24
897 H 65.86947371099474 164.48002248070168 58.85801693551696 H 0.0 **** 0.06
898 H 65.3680501512986 163.7231339422867 57.326607948032546 H 0.0 **** 0.06
899 H 65.49978816814141 165.49536391107154 57.44328879904822 H 0.0 **** 0.06
900 H 64.18899602568578 164.64348622114449 58.293884261453854 H 0.0 **** 0.06
901 C 61.497343264991926 14.33679328884508 86.66135931286023 C 0.0 **** -0.24
902 H 60.643390246697166 13.97432802664271 86.08881887995865 H 0.0 **** 0.06
903 H 61.146304567691345 14.78697165641902 87.59040864218012 H 0.0 **** 0.06
904 H 62.03727764716368 15.08107701084387 86.07729088297084 H 0.0 **** 0.06
905 H 62.161048694827954 13.503151262235562 86.8896013415539 H 0.0 **** 0.06
906 C 183.92330948534425 57.75926579909998 86.02503820781635 C 0.0 **** -0.24
907 H 183.12440436037247 57.213515932939174 86.52632558077715 H 0.0 **** 0.06
908 H 184.83460937099298 57.6966122314646 86.62067101293161 H 0.0 **** 0.06
909 H 183.63385093842032 58.8038236089987 85.91169322324623 H 0.0 **** 0.06
910 H 184.10037327159102 57.32311142299744 85.04146301431052 H 0.0 **** 0.06
911 C 145.49108322321422 41.68271824511493 182.94602060603228 C 0.0 **** -0.24
912 H 144.88671423099373 41.06612873193416 183.6111212370038 H 0.0 **** 0.06
913 H 146.52964874900977 41.355670271982405 182.99166733926282 H 0.0 **** 0.06
914 H 145.42349124151963 42.72539303855598 183.2562414293981 H 0.0 **** 0.06
915 H 145.12280039878226 41.58346438328192 181.92468285189588 H 0.0 **** 0.06
916 C 104.05923896277278 176.2104249329377 148.8117826128513 C 0.0 **** -0.24
917 H 104.563317634736 175.27591843398744 148.5642393372734 H 0.0 **** 0.06
918 H 103.84478783882128 176.23513867048052 149.88108816184007 H 0.0 **** 0.06
919 H 103.12691206045469 176.2796498630442 148.25258963597335 H 0.0 **** 0.06
920 H 104.70363129836602 177.05018432054302 148.55078823899674 H 0.0 **** 0.06
921 C 147.35698555750884 15.807280670931306 90.11084938121071 C 0.0 **** -0.24
922 H 146.40280230145214 15.307519895903823 89.94308510764971 H 0.0 **** 0.06
923 H 147.48861286662807 16.596513943113905 89.36980586838872 H 0.0 **** 0.06
924 H 148.16658895862662 15.083240873590512 90.01956922979237 H 0.0 **** 0.06
925 H 147.3688282676968 16.241208830284705 91.11033747461802 H 0.0 **** 0.06
926 C 130.82746216382458 168.61216943164953 43.78737870108955 C 0.0 **** -0.24
927 H 131.74459079279103 168.58609351770187 43.20004706157175 H 0.0 **** 0.06
928 H 130.13573519117915 169.33290382789514 43.3495840850492 H 0.0 **** 0.06
929 H 131.05950931642457 168.90731733378476 44.810990548329016 H 0.0 **** 0.06
930 H 130.36918544594323 167.62382634652772 43.78930951788999 H 0.0 **** 0.06
931 C 13.018146471442826 19.138096989564644 71.43492548593285 C 0.0 **** -0.24
932 H 12.810717479086748 19.46959265118207 72.45238762466423 H 0.0 **** 0.06
933 H 13.977671079544677 18.620609225008252 71.41024092334708 H 0.0 **** 0.06
934 H 13.054617363008319 20.00243086632983 70.77177000744173 H 0.0 **** 0.06
935 H 12.230914662991843 18.459676502395098 71.10576429238104 H 0.0 **** 0.06
936 C 53.49065399889139 140.49986764589272 152.95762163332046 C 0.0 **** -0.24
937 H 53.0189865295589 139.61135835649532 153.3769262900891 H 0.0 **** 0.06
938 H 52.736196196712285 141.26902288439862 152.79412853545023 H 0.0 **** 0.06
939 H 53.96315192675303 140.24634840351143 152.00873383147422 H 0.0 **** 0.06
940 H 54.24484910046448 140.87290878653187 153.6515037937064 H 0.0 **** 0.06
941 C 73.76376107294402 171.12075114903428 8.72980834108597 C 0.0 **** -0.24
942 H 73.88195651400696 171.99599659966407 9.368523926560385 H 0.0 **** 0.06
943 H 74.64143933623507 170.48068828846453 8.82371670914489 H 0.0 **** 0.06
944 H 73.65625126777337 171.43995333018216 7.693102994739718 H 0.0 **** 0.06
945 H 72.87584270983189 170.56738874128652 9.033020067299049 H 0.0 **** 0.06
946 C 108.25738999553782 52.57878431469756 166.16793715235264 C 0.0 **** -0.24
947 H 108.31901660763442 52.352186376422665 167.2326436443719 H 0.0 **** 0.06
948 H 107.35264893130288 53.15498012551937 165.97211994861286 H 0.0 **** 0.06
949 H 108.22745002082625 51.64890325391133 165.59960697930111 H 0.0 **** 0.06
950 H 109.13063515181297 53.15976627802711 165.8702893183022 H 0.0 **** 0.06
951 C 167.95025307466787 145.57506534585178 89.68379753685936 C 0.0 **** -0.24
952 H 167.95799205993367 146.20449684301133 88.79373547698926 H 0.0 **** 0.06
953 H 166.95943957973572 145.13867583256575 89.81041181750193 H 0.0 **** 0.06
954 H 168.1951446630203 146.17953587248184 90.55746444659313 H 0.0 **** 0.06
955 H 168.68629020668806 144.77963788588636 89.57379834951495 H 0.0 **** 0.06
956 C 176.49191909483932 28.46147223695435 132.83643784544552 C 0.0 **** -0.24
957 H 176.18338296714765 27.418898592524442 132.91392344709436 H 0.0 **** 0.06
958 H 176.2130184123079 28.99040445725157 133.74756323144237 H 0.0 **** 0.06
959 H 175.9977814247095 28.922813282235012 131.98173628829653 H 0.0 **** 0.06
960 H 177.57241314988954 28.51097933600677 132.7027030332825 H 0.0 **** 0.06
961 C 82.22848463691433 141.42176745768973 79.9242275097367 C 0.0 **** -0.24
962 H 82.8834283322174 141.72157850045386 80.74270015649637 H 0.0 **** 0.06
963 H 81.25620932403824 141.90144899708952 80.04233648960822 H 0.0 **** 0.06
964 H 82.10377541154814 140.33831353510385 79.93799730787839 H 0.0 **** 0.06
965 H 82.67084975306311 141.7245672347505 78.97547161506482 H 0.0 **** 0.06
966 C 145.25931966674602 36.4238073459959 48.759592083652024 C 0.0 **** -0.24
967 H 144.99652046655808 35.3677599722175 48.823191564209594 H 0.0 **** 0.06
968 H 145.23835609780537 36.86241159613708 49.75813664865734 H 0.0 **** 0.06
969 H 144.5420612140023 36.93797177122667 48.121242199294784 H 0.0 **** 0.06
970 H 146.25915580944283 36.5249766597495 48.338471198531806 H 0.0 **** 0.06
971 C 69.80545757590743 15.755406278195835 36.11224463806104 C 0.0 **** -0.24
972 H 70.2885162505743 14.778040225115767 36.125294335702336 H 0.0 **** 0.06
973 H 69.19317791158937 15.869275255222377 37.00750709272663 H 0.0 **** 0.06
974 H 69.17381097681407 15.83572091464957 35.22719745744024 H 0.0 **** 0.06
975 H 70.56561979400708 16.535199537277826 36.088852370448194 H 0.0 **** 0.06
976 C 88.84506846749694 81.99941140734289 167.74913473800729 C 0.0 **** -0.24
977 H 89.03937008258241 81.11258223032092 167.14583194617143 H 0.0 **** 0.06
978 H 87.77253180869054 82.19166225522588 167.77578221138663 H 0.0 **** 0.06
979 H 89.35739725318903 82.855821797802 167.31021807941772 H 0.0 **** 0.06
980 H 89.21120103323038 81.83624296565131 168.76266636689292 H 0.0 **** 0.06
981 C 135.7503512881513 16.26891539497212 129.21724019842276 C 0.0 **** -0.24
982 H 135.49681020016743 15.209421973110189 129.16967978511093 H 0.0 **** 0.06
983 H 135.4985295699439 16.74438073636884 128.2685627356305 H 0.0 **** 0.06
984 H 136.81739905727915 16.37870089959773 129.40652179893783 H 0.0 **** 0.06
985 H 135.18762625911626 16.74208951117116 130.02179296527936 H 0.0 **** 0.06
986 C 81.97700745004047 154.76629033214073 5.854245875503409 C 0.0 **** -0.24
987 H 81.30321170535466 153.97799971923382 6.187723806409821 H 0.0 **** 0.06
988 H 82.00507207504616 154.78349133351514 4.764636830356956 H 0.0 **** 0.06
989 H 82.97839526128253 154.5772175390404 6.240585474530199 H 0.0 **** 0.06
990 H 81.62102367556979 155.72882816915097 6.223536904871374 H 0.0 **** 0.06
991 C 24.270100890557558 35.64779234259112 66.2476098636196 C 0.0 **** -0.24
992 H 23.557359783320948 36.20642618665977 65.64207318262265 H 0.0 **** 0.06
993 H 23.734836201184564 35.08014752709617 67.0086246028315 H 0.0 **** 0.06
994 H 24.959727872647605 36.341789961031125 66.72925010427281 H 0.0 **** 0.06
995 H 24.830697698069528 34.96285590437871 65.61077104594364 H 0.0 **** 0.06
996 C 12.269032006318312 170.56459053917047 21.35920408527241 C 0.0 **** -0.24
997 H 11.668609628818643 170.90673320509114 22.20185805720709 H 0.0 **** 0.06
998 H 13.087181943674892 169.9434124156293 21.725115013335795 H 0.0 **** 0.06
999 H 12.675664382798224 171.42642813587761 20.829743568394065 H 0.0 **** 0.06
1000 H 11.645589084030533 169.9823351243025 20.68102718654208 H 0.0 **** 0.06
1001 C 52.954377664816775 126.33607037446166 161.85318939937736 C 0.0 **** -0.24
1002 H 53.47448984965648 127.28758776732593 161.9636852350946 H 0.0 **** 0.06
1003 H 51.89163376999316 126.51959940481322 161.6920810631109 H 0.0 **** 0.06
1004 H 53.08695063084892 125.74305286279565 162.75819990063508 H 0.0 **** 0.06
1005 H 53.363280280063904 125.79518366471751 161.00062412607465 H 0.0 **** 0.06
1006 C 123.44825485673528 103.10139283559782 160.8311269237222 C 0.0 **** -0.24
1007 H 123.62884903968614 102.03754205112297 160.67670666582978 H 0.0 **** 0.06
1008 H 122.51594542805537 103.23538966265208 161.379704486644 H 0.0 **** 0.06
1009 H 123.37707883397343 103.60111036757813 159.86480878955712 H 0.0 **** 0.06
1010 H 124.27092221537293 103.52956370208086 161.40299357396106 H 0.0 **** 0.06
1011 C 47.26232749799101 29.50776893945377 178.0824371849998 C 0.0 **** -0.24
1012 H 47.0459635845412 29.96837733897587 179.04597229305693 H 0.0 **** 0.06
1013 H 46.66535522339922 29.988531635950096 177.30811317585034 H 0.0 **** 0.06
1014 H 47.017819879964634 28.446183444973087 178.12395386820629 H 0.0 **** 0.06
1015 H 48.3211595586279 29.62783136602313 177.85169260509815 H 0.0 **** 0.06
1016 C 124.7452749507688 147.74034349838527 11.868784214932042 C 0.0 **** -0.24
1017 H 125.70418134611573 148.2550574368658 11.921873090122645 H 0.0 **** 0.06
1018 H 124.36405956788785 147.57496347987814 12.877064272391564 H 0.0 **** 0.06
1019 H 124.87560093884933 146.78138639671985 11.36797111625966 H 0.0 **** 0.06
1020 H 124.0365716516748 148.34963327646753 11.30758195922526 H 0.0 **** 0.06
1021 C 140.1196584979109 175.1807392352144 97.56676623523332 C 0.0 **** -0.24
1022 H 139.73883325850284 176.20098498097178 97.62597899963801 H 0.0 **** 0.06
1023 H 140.67257927324096 175.05310949966739 96.63637727438116 H 0.0 **** 0.06
1024 H 139.2856267144607 174.4801372223349 97.59400856502769 H 0.0 **** 0.06
1025 H 140.78115528820229 174.99141276415762 98.4128412175868 H 0.0 **** 0.06
1026 C 133.065799491387 75.8322977370094 33.11331893641196 C 0.0 **** -0.24
1027 H 133.7980102061956 76.61748822421866 32.921987392059975 H 0.0 **** 0.06
1028 H 133.5832160302145 74.8886352037515 33.28742959821889 H 0.0 **** 0.06
1029 H 132.40780436999358 75.73286672196134 32.25035297928798 H 0.0 **** 0.06
1030 H 132.4760612401035 76.09222597952672 33.99168585108498 H 0.0 **** 0.06
1031 C 59.341622548919304 170.67077352542015 36.68168304041157 C 0.0 **** -0.24
1032 H 60.41657585378702 170.75508729672936 36.84155156686779 H 0.0 **** 0.06
1033 H 58.8246179016986 170.75817227698667 37.63700026672197 H 0.0 **** 0.06
1034 H 59.117276347743385 169.70193783723067 36.234216190605466 H 0.0 **** 0.06
1035 H 59.01053849110569 171.46513997146138 36.01372224271091 H 0.0 **** 0.06
1036 C 46.58731839112565 29.171033587076806 72.5852905624907 C 0.0 **** -0.24
1037 H 45.81673815538812 29.031214498967643 73.34462917700846 H 0.0 **** 0.06
1038 H 47.212810204745836 30.022248306388065 72.85586934697955 H 0.0 **** 0.06
1039 H 46.11696962104608 29.357080185070743 71.6204029886659 H 0.0 **** 0.06
1040 H 47.20176668730585 28.27334528301003 72.52341696982427 H 0.0 **** 0.06
1041 C 162.42327913170624 88.96996179351692 86.99457161459272 C 0.0 **** -0.24
1042 H 163.13972386190574 88.60692812036262 86.25814521171664 H 0.0 **** 0.06
1043 H 161.7720034246367 88.1514321423926 87.30277698852443 H 0.0 **** 0.06
1044 H 161.82351137865152 89.766771493779 86.55567722381024 H 0.0 **** 0.06
1045 H 162.95864094933455 89.35443930225739 87.86284526872633 H 0.0 **** 0.06
1046 C 147.09484477088023 14.365543658486445 148.42145339116507 C 0.0 **** -0.24
1047 H 146.55325043375413 15.289836206659004 148.22101583094465 H 0.0 **** 0.06
1048 H 148.1675831404423 14.556106224184589 148.3743928794424 H 0.0 **** 0.06
1049 H 146.82513337215534 13.617333933827297 147.67643975349165 H 0.0 **** 0.06
1050 H 146.83341554071842 13.999579441146409 149.41469723329186 H 0.0 **** 0.06
1051 C 153.17281195968468 7.978498397106392 184.6440018513677 C 0.0 **** -0.24
1052 H 153.3701545336353 9.048704059188957 184.70489610285506 H 0.0 **** 0.06
1053 H 152.51557767617555 7.777749808957836 183.79758027874556 H 0.0 **** 0.06
1054 H 152.69435845716455 7.644557301488341 185.56390995454873 H 0.0 **** 0.06
1055 H 154.11289294172127 7.443662292771229 184.5088965191971 H 0.0 **** 0.06
1056 C 116.30736883859237 63.162698466895165 59.63205059913537 C 0.0 **** -0.24
1057 H 116.13550073011811 63.219371611130214 60.7075769381743 H 0.0 **** 0.06
1058 H 117.00858971034137 62.35589092502357 59.41871695418888 H 0.0 **** 0.06
1059 H 116.72117942498983 64.10728084092807 59.280438204778235 H 0.0 **** 0.06
1060 H 115.3630124640174 62.96764810473164 59.12326304772134 H 0.0 **** 0.06
1061 C 125.53509298432833 153.324185936956 80.23999676513424 C 0.0 **** -0.24
1062 H 126.52404189208919 153.0256103693856 80.58865715443072 H 0.0 **** 0.06
1063 H 125.51910117815159 153.32329747496053 79.1496464264081 H 0.0 **** 0.06
1064 H 125.30875555534224 154.32502340723977 80.60626724407476 H 0.0 **** 0.06
1065 H 124.79058213487137 152.6218307029008 80.61464871031897 H 0.0 **** 0.06
1066 C 161.45332623243425 51.071708282524185 60.17023075377239 C 0.0 **** -0.24
1067 H 161.58440219367094 51.77684653641657 59.35007560220828 H 0.0 **** 0.06
1068 H 161.81288112261154 50.0887017524081 59.86449258224033 H 0.0 **** 0.06
1069 H 160.39701531837358 51.00792137721629 60.42962586393236 H 0.0 **** 0.06
1070 H 162.02002238080047 51.41243320586992 61.03704871496623 H 0.0 **** 0.06
1071 C 63.857897462686125 185.24964140650863 89.10440456077716 C 0.0 **** -0.24
1072 H 64.43689588817443 185.73255533001299 89.89232419986938 H 0.0 **** 0.06
1073 H 62.88025129771371 185.72600551819897 89.0298956586807 H 0.0 **** 0.06
1074 H 63.73155371678982 184.19322012157602 89.34316953300787 H 0.0 **** 0.06
1075 H 64.38429104961757 185.34729769394264 88.1551904685801 H 0.0 **** 0.06
1076 C 164.55891192104502 63.90390029266612 137.2677009634262 C 0.0 **** -0.24
1077 H 163.86458475206172 64.72757174275672 137.10512956503675 H 0.0 **** 0.06
1078 H 165.354594032044 64.22700766359603 137.93801800554394 H 0.0 **** 0.06
1079 H 164.98790898926788 63.596773222816594 136.31356425547023 H 0.0 **** 0.06
1080 H 164.02618073459553 63.06295206636024 137.71328031926873 H 0.0 **** 0.06
1081 C 113.78944524451403 148.50315997889643 116.15777161495907 C 0.0 **** -0.24
1082 H 113.66602670236132 147.43072039036116 116.00992191500183 H 0.0 **** 0.06
1083 H 112.91951312205437 148.89963015849523 116.68236659075228 H 0.0 **** 0.06
1084 H 113.88653931829317 148.99519133302744 115.1904628594296 H 0.0 **** 0.06
1085 H 114.68603422065242 148.68701716195585 116.75054486915337 H 0.0 **** 0.06
1086 C 119.9446965324842 124.13123213030485 171.18160197005625 C 0.0 **** -0.24
1087 H 119.15681109266502 124.16563956251707 170.42959863921692 H 0.0 **** 0.06
1088 H 119.6861846695381 123.39646623524214 171.94413594372907 H 0.0 **** 0.06
1089 H 120.04867024010296 125.1134617049791 171.64330524070533 H 0.0 **** 0.06
1090 H 120.8861425722839 123.85034176939666 170.7090807194631 H 0.0 **** 0.06
1091 C 21.65527184957628 66.05777904699897 172.86332437628698 C 0.0 **** -0.24
1092 H 22.04657456987856 65.89502708209 171.85915589504373 H 0.0 **** 0.06
1093 H 21.900999949250618 65.20196858258856 173.4924495827255 H 0.0 **** 0.06
1094 H 20.57232675318832 66.17590319912591 172.8156694901868 H 0.0 **** 0.06
1095 H 22.099733530224583 66.9593644518983 173.28441810213167 H 0.0 **** 0.06
1096 C 105.07166375852314 75.7115688749825 161.47721550728016 C 0.0 **** -0.24
1097 H 105.99211282221948 76.29403842096121 161.43043808979223 H 0.0 **** 0.06
1098 H 105.29906004304085 74.65883203136775 161.305537133254 H 0.0 **** 0.06
1099 H 104.38038494051698 76.06467848074931 160.71159838322626 H 0.0 **** 0.06
1100 H 104.61616926781893 75.82934567274322 162.46007701319687 H 0.0 **** 0.06
1101 C 112.90614062044891 32.5415713105063 53.60029099946814 C 0.0 **** -0.24
1102 H 113.2782360592865 33.329409272533184 54.2548402185987 H 0.0 **** 0.06
1103 H 112.87911890661339 31.598555767600857 54.14604723628031 H 0.0 **** 0.06
1104 H 113.56623769222487 32.444900229392374 52.738603754472706 H 0.0 **** 0.06
1105 H 111.90141929576093 32.79552968132447 53.26226204829857 H 0.0 **** 0.06
1106 C 50.30505543246322 177.02990224129752 166.86533820165843 C 0.0 **** -0.24
1107 H 49.800471851612585 176.0839583300902 166.66824712145385 H 0.0 **** 0.06
1108 H 49.94111287076366 177.44773356160943 167.80391060650894 H 0.0 **** 0.06
1109 H 50.0995126584144 177.72735107803342 166.05286009812133 H 0.0 **** 0.06
1110 H 51.38030536795607 176.86088098854742 166.9351077691293 H 0.0 **** 0.06
1111 C 53.66896334652769 21.86924554467504 23.46789718482563 C 0.0 **** -0.24
1112 H 54.4206673334384 21.336085942515865 22.88505900783565 H 0.0 **** 0.06
1113 H 53.22122607828773 22.651684682530856 22.85357907020517 H 0.0 **** 0.06
1114 H 54.13944766166932 22.31827479480853 24.342233269376152 H 0.0 **** 0.06
1115 H 52.8952173261432 21.17223410055908 23.78903811105181 H 0.0 **** 0.06
1116 C 20.671286292475976 81.52708948240934 165.72536010067037 C 0.0 **** -0.24
1117 H 21.356702132758144 82.32914421156653 165.99809382600944 H 0.0 **** 0.06
1118 H 20.85508717926986 80.66007876142749 166.36102120759548 H 0.0 **** 0.06
1119 H 20.82874409645848 81.25322595798656 164.68185390138797 H 0.0 **** 0.06
1120 H 19.643499678790732 81.86564029734353 165.8613028047232 H 0.0 **** 0.06
1121 C 145.55780380434797 172.65011579117504 82.44816510995133 C 0.0 **** -0.24
1122 H 144.59261576237054 172.18130591799178 82.25561195316965 H 0.0 **** 0.06
1123 H 146.20136056659368 171.94946303025995 82.98063837510296 H 0.0 **** 0.06
1124 H 145.41339611258277 173.54391659742646 83.05459885367884 H 0.0 **** 0.06
1125 H 146.0237376449513 172.92333175197643 81.50172861293964 H 0.0 **** 0.06
1126 C 134.9571961495276 89.15765534855451 123.14319157440882 C 0.0 **** -0.24
1127 H 134.8706179065872 90.19668199490228 122.8251189369213 H 0.0 **** 0.06
1128 H 135.96803173260963 88.79977622995465 122.94198427028103 H 0.0 **** 0.06
1129 H 134.23957358714478 88.54789185756248 122.59409621737983 H 0.0 **** 0.06
1130 H 134.75276809686068 89.08726168096898 124.21117998603468 H 0.0 **** 0.06
1131 C 81.04464541498385 123.66005980548566 19.66814412116294 C 0.0 **** -0.24
1132 H 80.5703139808598 122.94797781063461 18.993945152612028 H 0.0 **** 0.06
1133 H 82.12731793648072 123.53658717595958 19.624302189710193 H 0.0 **** 0.06
1134 H 80.69916877871151 123.48124440345619 20.687226724496142 H 0.0 **** 0.06
1135 H 80.78154928006694 124.6745438815346 19.368815131888113 H 0.0 **** 0.06
1136 C 31.67462531652407 183.17779559764233 36.24528651090023 C 0.0 **** -0.24
1137 H 31.13242492853253 182.89774798100635 35.34215449743442 H 0.0 **** 0.06
1138 H 31.812262614860188 184.25873503798735 36.2655905950557 H 0.0 **** 0.06
1139 H 32.64831706995888 182.68658664091566 36.25149339696122 H 0.0 **** 0.06
1140 H 31.106515610706992 182.86645797923453 37.12143466806316 H 0.0 **** 0.06
1141 C 142.65684721667338 57.07595344038049 4.295221609326518 C 0.0 **** -0.24
1142 H 143.60727676105697 56.694896119752215 3.921571554322668 H 0.0 **** 0.06
1143 H 141.93518411794872 56.26061395351363 4.348964192740709 H 0.0 **** 0.06
1144 H 142.28459458555022 57.847702616338125 3.6210780307705193 H 0.0 **** 0.06
1145 H 142.8015180442477 57.50021491164728 5.288603665640892 H 0.0 **** 0.06
1146 C 33.9087424817871 2.2453782660451793 35.4500945732311 C 0.0 **** -0.24
1147 H 33.6377560777907 3.213642092248648 35.87264862893346 H 0.0 **** 0.06
1148 H 34.90422884952835 2.3071466053761753 35.01051872599726 H 0.0 **** 0.06
1149 H 33.18722915598471 1.9700853263717306 34.681705577451936 H 0.0 **** 0.06
1150 H 33.904555871795594 1.4926717937526632 36.238230851562946 H 0.0 **** 0.06
1151 C 161.67761025206423 21.991028133924033 147.17000969831727 C 0.0 **** -0.24
1152 H 162.0770468450656 23.002323725354927 147.09072534093866 H 0.0 **** 0.06
1153 H 160.63626999342836 22.03648855045202 147.48998813164093 H 0.0 **** 0.06
1154 H 162.25878204610302 21.42645014844402 147.89872664843642 H 0.0 **** 0.06
1155 H 161.7383308885532 21.4997573402635 146.1985549175665 H 0.0 **** 0.06
1156 C 126.82691977648288 41.23654974184137 32.07349692284404 C 0.0 **** -0.24
1157 H 127.77511055763058 40.75345575266118 32.311073905779324 H 0.0 **** 0.06
1158 H 126.56141557291419 41.02732705130819 31.036917565910812 H 0.0 **** 0.06
1159 H 126.92277541177744 42.31348797476684 32.21439092907488 H 0.0 **** 0.06
1160 H 126.0477768886809 40.85215143237133 32.7323729992648 H 0.0 **** 0.06
1161 C 156.75655564101905 99.18260386877724 184.9751824360701 C 0.0 **** -0.24
1162 H 156.86209183359412 99.32605877180934 183.89964434939242 H 0.0 **** 0.06
1163 H 156.14186877727323 98.30306923837803 185.166125493576 H 0.0 **** 0.06
1164 H 156.28251960320603 100.05990089598349 185.41441597756216 H 0.0 **** 0.06
1165 H 157.7421849524161 99.04146643559731 185.4207096435653 H 0.0 **** 0.06
1166 C 115.78436338971989 121.39933718294823 105.13686390368609 C 0.0 **** -0.24
1167 H 115.87415805075068 120.34267065883485 105.38978118376615 H 0.0 **** 0.06
1168 H 114.79206405597097 121.59297900399774 104.73129738084022 H 0.0 **** 0.06
1169 H 116.5384118578462 121.6592733443067 104.39463924966428 H 0.0 **** 0.06
1170 H 115.93481929428441 121.99987541653108 106.03331813265153 H 0.0 **** 0.06
1171 C 144.8026836613296 0.7318308658070691 99.89229810634625 C 0.0 **** -0.24
1172 H 144.9463257398664 1.8062724378840187 100.01218412520599 H 0.0 **** 0.06
1173 H 145.72873036674872 0.21303615623946826 100.13699357926951 H 0.0 **** 0.06
1174 H 144.5271820635364 0.5162585505253503 98.85975666896469 H 0.0 **** 0.06
1175 H 144.00851306331072 0.39500245574373594 100.55839722837608 H 0.0 **** 0.06
1176 C 76.50322597571545 139.23484809343717 70.35983220403791 C 0.0 **** -0.24
1177 H 77.028329756823 139.65833129279713 69.50327725637275 H 0.0 **** 0.06
1178 H 75.43908974139302 139.16199179486165 70.13411687201196 H 0.0 **** 0.06
1179 H 76.64725346629949 139.87751097259525 71.22738901901867 H 0.0 **** 0.06
1180 H 76.89845429195263 138.24195726986233 70.57365630285139 H 0.0 **** 0.06
1181 C 98.68227733701349 154.0205064447531 87.47023514137904 C 0.0 **** -0.24
1182 H 97.65801813923702 153.66984547993798 87.60249391363844 H 0.0 **** 0.06
1183 H 99.18748710784223 154.0367191711902 88.43521574388826 H 0.0 **** 0.06
1184 H 98.67000344890369 155.02539321670304 87.04842679067052 H 0.0 **** 0.06
1185 H 99.21099176107867 153.34910049875083 86.79368250088892 H 0.0 **** 0.06
1186 C 4.347862632202293 123.83664196289845 134.96927025891358 C 0.0 **** -0.24
1187 H 5.387341639182523 123.8578907586803 134.64257738185478 H 0.0 **** 0.06
1188 H 3.8749295595327453 122.92085138921556 134.61390381419028 H 0.0 **** 0.06
1189 H 3.8223285633538637 124.70009765731629 134.56175760607834 H 0.0 **** 0.06
1190 H 4.309634786972765 123.86756050225836 136.058371746516 H 0.0 **** 0.06
1191 C 126.64996089490927 74.78632021349489 150.2630108268643 C 0.0 **** -0.24
1192 H 126.28956444486806 75.07849288742932 151.24957552416134 H 0.0 **** 0.06
1193 H 125.81513397370202 74.41745794103997 149.66694455247588 H 0.0 **** 0.06
1194 H 127.39782332391553 74.00100380941478 150.3676782436637 H 0.0 **** 0.06
1195 H 127.09578264141777 75.64952956581703 149.76989023131307 H 0.0 **** 0.06
1196 C 132.59996345317472 49.62946868152238 91.09365626578555 C 0.0 **** -0.24
1197 H 132.30264756675126 50.670262331798426 90.96515643742482 H 0.0 **** 0.06
1198 H 131.8852678394158 49.12420239783094 91.74296629590357 H 0.0 **** 0.06
1199 H 133.5923405919051 49.58872608526016 91.54318716536586 H 0.0 **** 0.06
1200 H 132.62095597012865 49.13587946320291 90.12246300959082 H 0.0 **** 0.06
1201 C 164.12414186861346 183.29897594400205 94.39383566847653 C 0.0 **** -0.24
1202 H 165.08969723467482 183.6034040799292 93.98830793689905 H 0.0 **** 0.06
1203 H 163.65892950778178 184.14773871226313 94.89529512867409 H 0.0 **** 0.06
1204 H 164.26958868427013 182.48980603896143 95.10897455907099 H 0.0 **** 0.06
1205 H 163.48056567023255 182.9577380025605 93.58336068883568 H 0.0 **** 0.06
1206 C 104.57679115562307 15.668424398147465 180.43021832747183 C 0.0 **** -0.24
1207 H 103.88160448926017 15.111455112390331 179.80163890572385 H 0.0 **** 0.06
1208 H 104.52169200081154 16.728042961944993 180.18094349472818 H 0.0 **** 0.06
1209 H 105.59028175455977 15.30698029562501 180.25864237164143 H 0.0 **** 0.06
1210 H 104.31276774807928 15.526381275625198 181.47774385575394 H 0.0 **** 0.06
1211 C 164.24896008737883 169.9292234021067 79.48173540117945 C 0.0 **** -0.24
1212 H 163.5486878855134 169.41958237156913 78.8202701977329 H 0.0 **** 0.06
1213 H 163.99686512174532 169.70499580913224 80.51911793659838 H 0.0 **** 0.06
1214 H 164.18688390792786 171.0049875936052 79.31711062037505 H 0.0 **** 0.06
1215 H 165.26244494080504 169.58734777998404 79.27219812525668 H 0.0 **** 0.06
1216 C 138.33646676564922 167.88131541048043 25.807553186915527 C 0.0 **** -0.24
1217 H 138.6252728335062 166.92040834337098 26.233584911713905 H 0.0 **** 0.06
1218 H 137.4431563896842 168.24810519761454 26.31326574553998 H 0.0 **** 0.06
1219 H 138.1299136693828 167.76028450511967 24.74455615909244 H 0.0 **** 0.06
1220 H 139.14962330313944 168.59593622643249 25.94088336822955 H 0.0 **** 0.06
1221 C 131.67278212231105 79.83957065635371 105.52334977771632 C 0.0 **** -0.24
1222 H 130.85999918204925 79.60668051673613 104.8351024029348 H 0.0 **** 0.06
1223 H 132.44629624979814 79.07676737346216 105.44197793009992 H 0.0 **** 0.06
1224 H 131.28888290914028 79.86248797845265 106.54296467524905 H 0.0 **** 0.06
1225 H 132.0940133996039 80.8133638030133 105.27086113377943 H 0.0 **** 0.06
1226 C 159.90863218866136 185.32814454190583 81.41550830325258 C 0.0 **** -0.24
1227 H 160.45975144593416 185.65341146128446 80.53279182900948 H 0.0 **** 0.06
1228 H 158.9782756813301 185.8910811510165 81.49099014215082 H 0.0 **** 0.06
1229 H 160.51394624360165 185.50245118074596 82.30489373497825 H 0.0 **** 0.06
1230 H 159.68433544079556 184.2638574481476 81.3314406926827 H 0.0 **** 0.06
1231 C 66.14752764188944 34.13472445040108 179.57024004576806 C 0.0 **** -0.24
1232 H 65.88631500668771 34.836285311324986 178.77807360048666 H 0.0 **** 0.06
1233 H 66.42579596006752 34.68804412204386 180.46735957801326 H 0.0 **** 0.06
1234 H 66.98746055112682 33.51980767134208 179.24718057298938 H 0.0 **** 0.06
1235 H 65.2908737096813 33.496235874285105 179.78669962317895 H 0.0 **** 0.06
1236 C 80.59563611712116 166.41372774514238 99.79337617053635 C 0.0 **** -0.24
1237 H 79.89016796363723 165.74472507632697 99.2996510452816 H 0.0 **** 0.06
1238 H 81.50715326293408 166.4826240482157 99.19948631474996 H 0.0 **** 0.06
1239 H 80.83504349636695 166.02428264081 100.78272695422761 H 0.0 **** 0.06
1240 H 80.14916979257826 167.403328005512 99.89065159898523 H 0.0 **** 0.06
1241 C 99.80394413648662 133.72087241738262 74.57650319452829 C 0.0 **** -0.24
1242 H 99.50806769055288 134.35855708268008 75.4096993100864 H 0.0 **** 0.06
1243 H 100.81713189097422 133.3531486464516 74.74382087673676 H 0.0 **** 0.06
1244 H 99.77399762071678 134.29521151722412 73.65070615311755 H 0.0 **** 0.06
1245 H 99.1181429176059 132.87712950509945 74.50328477723713 H 0.0 **** 0.06
1246 C 5.331533759176928 78.54105182960723 134.77830436073532 C 0.0 **** -0.24
1247 H 6.37885892254085 78.33244012406176 134.55872855474774 H 0.0 **** 0.06
1248 H 5.264338024245987 79.16273695543161 135.67104939615632 H 0.0 **** 0.06
1249 H 4.801860534226648 77.60317662558035 134.946407744343 H 0.0 **** 0.06
1250 H 4.882012944043758 79.06514017497823 133.93513012262798 H 0.0 **** 0.06
1251 C 110.3776211323492 41.2286830788849 77.44727119013965 C 0.0 **** -0.24
1252 H 111.02020342585722 41.47136584293274 76.60072559548075 H 0.0 **** 0.06
1253 H 110.70227507414445 41.79126947865214 78.32315631287315 H 0.0 **** 0.06
1254 H 110.44030753219052 40.16080610067009 77.65686017069686 H 0.0 **** 0.06
1255 H 109.34670004760527 41.49125124677393 77.20734189382705 H 0.0 **** 0.06
1256 C 33.06135535271591 161.10895865800626 182.02026544698856 C 0.0 **** -0.24
1257 H 32.25948628928907 160.52788357176763 181.5648347591354 H 0.0 **** 0.06
1258 H 33.61544325585024 160.47925080803114 182.71680474780766 H 0.0 **** 0.06
1259 H 32.63612720541005 161.95729239930876 182.55532265564852 H 0.0 **** 0.06
1260 H 33.73456747768182 161.47049968696015 181.24183373745717 H 0.0 **** 0.06
1261 C 137.04298005509008 181.07738287436672 29.83858015688837 C 0.0 **** -0.24
1262 H 137.99405783100264 180.69444772293772 29.467594827136736 H 0.0 **** 0.06
1263 H 136.31805509493267 181.099951594185 29.024028836665252 H 0.0 **** 0.06
1264 H 137.1846991244151 182.08626382919124 30.22745714709596 H 0.0 **** 0.06
1265 H 136.67556931666877 180.42955397176894 30.634676529122515 H 0.0 **** 0.06
1266 C 19.838075201993746 30.155462522851735 154.42767835227187 C 0.0 **** -0.24
1267 H 20.62831147453153 30.007846916125658 155.16447659804663 H 0.0 **** 0.06
1268 H 18.91057206783944 29.720294596589326 154.79886989091705 H 0.0 **** 0.06
1269 H 20.119334095414587 29.671151190360007 153.49184323609907 H 0.0 **** 0.06
1270 H 19.69705921496555 31.22257391930475 154.25590197842422 H 0.0 **** 0.06
1271 C 53.50678300129053 43.74846450840414 106.97511354220224 C 0.0 **** -0.24
1272 H 53.86963901623338 44.76130051795499 107.14866492225819 H 0.0 **** 0.06
1273 H 54.09381978670804 43.28475794731371 106.18224822881307 H 0.0 **** 0.06
1274 H 52.45829259991646 43.78343055774158 106.67830446148814 H 0.0 **** 0.06
1275 H 53.60621321193405 43.165181963976636 107.89043286635193 H 0.0 **** 0.06
1276 C 115.66099754255225 77.77249824729208 80.61911882989875 C 0.0 **** -0.24
1277 H 115.66116802608775 76.886649093223 79.98557123011409 H 0.0 **** 0.06
1278 H 115.37979624036689 78.6433882075581 80.02653307045364 H 0.0 **** 0.06
1279 H 116.65766149097692 77.922997991208 81.03524644271454 H 0.0 **** 0.06
1280 H 114.9455870494134 77.63875535536691 81.43043567567747 H 0.0 **** 0.06
1281 C 125.27845204630502 171.0857037798055 49.58118439529407 C 0.0 **** -0.24
1282 H 125.1275041409901 171.72144309109666 50.453586607311976 H 0.0 **** 0.06
1283 H 125.42161840503316 170.05440835865727 49.90433686853986 H 0.0 **** 0.06
1284 H 126.1607703771423 171.42158372128011 49.03574016467894 H 0.0 **** 0.06
1285 H 124.405368179214 171.14572499176012 48.9327383024562 H 0.0 **** 0.06
1286 C 123.41266542636312 1.8229043998571584 156.42820304348083 C 0.0 **** -0.24
1287 H 124.3967407344282 2.212747356500799 156.6887191161133 H 0.0 **** 0.06
1288 H 123.25594745277142 0.8673346041441619 156.9302321712933 H 0.0 **** 0.06
1289 H 123.3515428917908 1.68203987392679 155.3496148202043 H 0.0 **** 0.06
1290 H 122.64657207621717 2.5306231242289954 156.74641613568977 H 0.0 **** 0.06
1291 C 131.55755738934033 92.02808045016764 182.2915396799292 C 0.0 **** -0.24
1292 H 131.58803985699222 91.54546031575967 181.3143651798738 H 0.0 **** 0.06
1293 H 130.55221171062738 91.94441960177323 182.70631592430368 H 0.0 **** 0.06
1294 H 131.82157007380636 93.08028520877821 182.18610340547548 H 0.0 **** 0.06
1295 H 132.26751962519597 91.5398936629465 182.95907443148337 H 0.0 **** 0.06
1296 C 146.40355897430078 174.44968964237148 152.9620153968326 C 0.0 **** -0.24
1297 H 147.12103286868876 175.12557233592008 152.49620731397357 H 0.0 **** 0.06
1298 H 145.3934827279619 174.7357735094312 152.6698812761639 H 0.0 **** 0.06
1299 H 146.49959533063225 174.50808707690587 154.0461897925215 H 0.0 **** 0.06
1300 H 146.6020558535924 173.42898153576522 152.63470924046368 H 0.0 **** 0.06
1301 C 79.98869634167379 36.34516888482392 94.540555284284 C 0.0 **** -0.24
1302 H 79.37154521719343 35.45590154783582 94.6679697705252 H 0.0 **** 0.06
1303 H 80.22095281549285 36.476194246221866 93.48344759806837 H 0.0 **** 0.06
1304 H 80.91288642583886 36.2299427781785 95.10558799167121 H 0.0 **** 0.06
1305 H 79.44591502747957 37.21773131800768 94.90504619827244 H 0.0 **** 0.06
1306 C 152.52941498410607 14.09708361687251 106.4085680547138 C 0.0 **** -0.24
1307 H 152.35388661387768 15.128554226359967 106.71296338785665 H 0.0 **** 0.06
1308 H 152.01082216213197 13.901416409537823 105.47007607847881 H 0.0 **** 0.06
1309 H 152.1534924501011 13.422588224083519 107.17926100870555 H 0.0 **** 0.06
1310 H 153.5985732098103 13.935217614181127 106.2741863951626 H 0.0 **** 0.06
1311 C 54.87375965796434 109.79049420817516 148.01821254359766 C 0.0 **** -0.24
1312 H 54.60737303851516 109.99802419965924 149.0545039266516 H 0.0 **** 0.06
1313 H 55.73591402635452 110.39502804736067 147.73588816479207 H 0.0 **** 0.06
1314 H 54.03100629850894 110.03565077886735 147.37089235602053 H 0.0 **** 0.06
1315 H 55.11953605394234 108.73465527546911 147.91028922070512 H 0.0 **** 0.06
1316 C 111.73332821287812 71.02222142737719 56.21061171777828 C 0.0 **** -0.24
1317 H 111.12161277199556 70.38643768996675 56.85183996001024 H 0.0 **** 0.06
1318 H 112.40174156956681 71.62293855482267 56.82821426355321 H 0.0 **** 0.06
1319 H 111.08701227851412 71.67927043830827 55.62828218529677 H 0.0 **** 0.06
1320 H 112.32145000157215 70.39885892144108 55.53691347902901 H 0.0 **** 0.06
1321 C 159.2034543708386 32.32558065884206 63.66565856517042 C 0.0 **** -0.24
1322 H 158.47418195298164 32.8101252205895 63.016923136766536 H 0.0 **** 0.06
1323 H 159.1339973309672 32.747298755599104 64.66908318367814 H 0.0 **** 0.06
1324 H 160.20710195529625 32.49036329023153 63.27090721569715 H 0.0 **** 0.06
1325 H 159.00016889151638 31.256268699557893 63.70514611534048 H 0.0 **** 0.06
1326 C 125.1441872700175 123.61610091605228 12.273666215698483 C 0.0 **** -0.24
1327 H 125.46204122843925 124.4378714048381 11.632289198476798 H 0.0 **** 0.06
1328 H 124.72917866347002 122.81640633242095 11.659191787602083 H 0.0 **** 0.06
1329 H 124.38435779933393 123.9720819947194 12.969743095291335 H 0.0 **** 0.06
1330 H 126.00093688646454 123.23903001737854 12.831210805411956 H 0.0 **** 0.06
1331 C 185.29413145715364 37.35408698255161 84.68602946069126 C 0.0 **** -0.24
1332 H 184.86518267795287 36.3829093623994 84.4416234278674 H 0.0 **** 0.06
1333 H 184.5405172088852 38.129041548597 84.54458916130369 H 0.0 **** 0.06
1334 H 186.14448882886703 37.55059851970314 84.03467251770894 H 0.0 **** 0.06
1335 H 185.6247741629323 37.35392704674804 85.7248267203741 H 0.0 **** 0.06
1336 C 87.70911107215936 10.101727561062944 156.74033868300614 C 0.0 **** -0.24
1337 H 87.63647372429783 11.077368572910558 156.26162817470197 H 0.0 **** 0.06
1338 H 87.79927335694934 10.232492011952615 157.8187666070242 H 0.0 **** 0.06
1339 H 88.58650900953877 9.5760438234135 156.3636586734545 H 0.0 **** 0.06
1340 H 86.8145603696921 9.520421924131767 156.51853439667184 H 0.0 **** 0.06
1341 C 180.07417656228822 73.59680612817704 111.30167775622128 C 0.0 **** -0.24
1342 H 180.91405816018928 72.92459669860207 111.48036959876133 H 0.0 **** 0.06
1343 H 179.22771198113895 73.29158798160987 111.9162425945499 H 0.0 **** 0.06
1344 H 179.79401939108038 73.5551253598232 110.2481930223649 H 0.0 **** 0.06
1345 H 180.3628509937034 74.61579138492947 111.56079066543909 H 0.0 **** 0.06
1346 C 58.1331988332564 133.0428096307731 107.96686388985006 C 0.0 **** -0.24
1347 H 57.21156257582459 133.26266265824302 107.4280850699484 H 0.0 **** 0.06
1348 H 58.97881135857014 133.47839658786148 107.43364831607784 H 0.0 **** 0.06
1349 H 58.264396733121345 131.9631117377179 108.03555103241592 H 0.0 **** 0.06
1350 H 58.078588503808206 133.46637734541707 108.96971755134922 H 0.0 **** 0.06
1351 C 97.61638415813023 38.728907478814534 181.97022464508473 C 0.0 **** -0.24
1352 H 98.25293798868263 37.880118905291226 182.21923173383937 H 0.0 **** 0.06
1353 H 96.65892187789613 38.36590381180821 181.59305525523325 H 0.0 **** 0.06
1354 H 98.10168229503675 39.33528276899875 181.20584576414512 H 0.0 **** 0.06
1355 H 97.44984008718298 39.33320432743136 182.8624431024947 H 0.0 **** 0.06
1356 C 38.55806266922322 175.00196971896594 2.535338681464566 C 0.0 **** -0.24
1357 H 39.28427109541282 175.10867364097442 1.7294764352538152 H 0.0 **** 0.06
1358 H 37.88783458366214 174.1720547046203 2.311573751542113 H 0.0 **** 0.06
1359 H 37.97979075678394 175.92115429415688 2.6268846523795446 H 0.0 **** 0.06
1360 H 39.08089666806217 174.80639001857054 3.4712866187978193 H 0.0 **** 0.06
1361 C 7.337966649561906 86.9346221060481 170.24460550311673 C 0.0 **** -0.24
1362 H 7.513741878233986 88.00734871607227 170.3189763934343 H 0.0 **** 0.06
1363 H 8.120826296943562 86.4797243406399 169.63779321189284 H 0.0 **** 0.06
1364 H 6.367220457531118 86.75672693555885 169.78028714371146 H 0.0 **** 0.06
1365 H 7.349420925610104 86.49494839517246 171.24207289493904 H 0.0 **** 0.06
1366 C 118.3841387397485 71.20676835338338 9.850720056080156 C 0.0 **** -0.24
1367 H 118.65459483266642 70.17393267479119 10.069302570208464 H 0.0 **** 0.06
1368 H 117.29800224066912 71.29737337724806 9.816287185265693 H 0.0 **** 0.06
1369 H 118.8033010714961 71.49624399202432 8.887925624711897 H 0.0 **** 0.06
1370 H 118.77888606859028 71.85785741419782 10.629663510236583 H 0.0 **** 0.06
1371 C 88.60764583943647 99.89426691828679 28.97733334867884 C 0.0 **** -0.24
1372 H 89.69481201711638 99.81854124009625 28.986697020537378 H 0.0 **** 0.06
1373 H 88.31618502567515 100.94232922334506 29.050786590398204 H 0.0 **** 0.06
1374 H 88.19827088039544 99.34226507582456 29.82220755394654 H 0.0 **** 0.06
1375 H 88.22268937546922 99.47393406429218 28.047878028534328 H 0.0 **** 0.06
1376 C 147.22103369740918 107.44663996208347 121.6141645791681 C 0.0 **** -0.24
1377 H 147.34106203876297 106.45501609711856 121.1784425829553 H 0.0 **** 0.06
1378 H 147.5201244615724 107.42095562079727 122.66231075601225 H 0.0 **** 0.06
1379 H 146.17740974948856 107.7522787179406 121.54099788625105 H 0.0 **** 0.06
1380 H 147.84719542807576 108.15781049685766 121.07483041921155 H 0.0 **** 0.06
1381 C 144.0580450692213 72.05694252433534 107.32607635690573 C 0.0 **** -0.24
1382 H 143.0044252261488 71.78210890153132 107.36114826929912 H 0.0 **** 0.06
1383 H 144.66532380851464 71.15681911728484 107.22445559814946 H 0.0 **** 0.06
1384 H 144.32845590251713 72.57465874928953 108.24647912722196 H 0.0 **** 0.06
1385 H 144.23487049989552 72.71356997536694 106.4741775822663 H 0.0 **** 0.06
1386 C 86.10003209956682 115.89284080057028 7.7895842338859325 C 0.0 **** -0.24
1387 H 86.42673149140126 116.73465716807813 7.179689115330433 H 0.0 **** 0.06
1388 H 86.28389699448144 114.96186586122731 7.253089376484013 H 0.0 **** 0.06
1389 H 85.03421739026965 115.98778345458287 7.998280835866417 H 0.0 **** 0.06
1390 H 86.65443582589052 115.88702282209108 8.727808626939314 H 0.0 **** 0.06
1391 C 21.69695453952002 126.07983445995505 133.23587780177644 C 0.0 **** -0.24
1392 H 22.721341571980716 125.70743043490641 133.221955996308 H 0.0 **** 0.06
1393 H 21.01032780437925 125.24888646328621 133.39983979203288 H 0.0 **** 0.06
1394 H 21.470747853139216 126.55732954146437 132.2825177729777 H 0.0 **** 0.06
1395 H 21.586504388847814 126.80666867902075 134.04087914067213 H 0.0 **** 0.06
1396 C 30.82400002953551 86.17270858593015 145.91611872791566 C 0.0 **** -0.24
1397 H 30.200067566955852 85.3767578799244 145.5102097401505 H 0.0 **** 0.06
1398 H 31.510064372768966 86.52514773164147 145.14594554751756 H 0.0 **** 0.06
1399 H 31.39331893213847 85.79107587279641 146.76393700681066 H 0.0 **** 0.06
1400 H 30.192182950868926 86.9978984638408 146.24531201086728 H 0.0 **** 0.06
1401 C 75.97398047000513 97.80833566878088 181.95996215294366 C 0.0 **** -0.24
1402 H 76.86142034483282 98.20184163163016 181.4626283320478 H 0.0 **** 0.06
1403 H 75.27399025014142 98.62285228340322 182.1508594640872 H 0.0 **** 0.06
1404 H 76.26174468547208 97.34590914814562 182.90342428760798 H 0.0 **** 0.06
1405 H 75.50033823075887 97.0636350794231 181.31966109532388 H 0.0 **** 0.06
1406 C 152.22010265218003 157.27142718469003 104.34200574348345 C 0.0 **** -0.24
1407 H 151.79305939540944 156.59454425858922 105.08169142928374 H 0.0 **** 0.06
1408 H 151.97268261642984 158.29980197764118 104.60588067929918 H 0.0 **** 0.06
1409 H 151.81031610833037 157.0400867292086 103.35837879860217 H 0.0 **** 0.06
1410 H 153.30332650870452 157.15071352459464 104.32127752841991 H 0.0 **** 0.06
1411 C 81.30571762505326 21.198330329510753 110.32562557037274 C 0.0 **** -0.24
1412 H 80.29729479011804 21.113344369763837 109.91987053033638 H 0.0 **** 0.06
1413 H 81.9941343354303 21.48383297199419 109.53009616046178 H 0.0 **** 0.06
1414 H 81.61038922000301 20.238671548126717 110.7445248829139 H 0.0 **** 0.06
1415 H 81.31922075251363 21.9564344727643 111.10876485520946 H 0.0 **** 0.06
1416 C 123.81510612355589 151.03866879912812 94.38151699690867 C 0.0 **** -0.24
1417 H 122.88658924412027 151.6029673228803 94.30211350991074 H 0.0 **** 0.06
1418 H 123.93225988947233 150.67347009709135 95.40171710545319 H 0.0 **** 0.06
1419 H 124.65590020764853 151.68532801364117 94.12809134322244 H 0.0 **** 0.06
1420 H 123.78670458298296 150.19383719059834 93.6938628309408 H 0.0 **** 0.06
1421 C 49.448784680804465 66.05509855454683 11.013703524941889 C 0.0 **** -0.24
1422 H 49.02742705715261 65.9459496296844 12.013144185626487 H 0.0 **** 0.06
1423 H 49.30504472382606 65.12922047987108 10.45605130515463 H 0.0 **** 0.06
1424 H 50.51398482519882 66.27076375618948 11.091713237836814 H 0.0 **** 0.06
1425 H 48.94913249689441 66.87402626366033 10.496839471923522 H 0.0 **** 0.06
1426 C 52.59992730930054 79.64471673131578 80.72165195726133 C 0.0 **** -0.24
1427 H 52.853226709702085 79.21557214945031 79.75233327904037 H 0.0 **** 0.06
1428 H 51.515099524659774 79.6688560901039 80.83692292926706 H 0.0 **** 0.06
1429 H 52.99474635645515 80.65817006368934 80.7850049262415 H 0.0 **** 0.06
1430 H 53.03572130843884 79.0354419452117 81.51421187155879 H 0.0 **** 0.06
1431 C 112.38749675745606 173.10592998484196 35.57889661495699 C 0.0 **** -0.24
1432 H 113.43787309359658 172.8852543018303 35.77022661996881 H 0.0 **** 0.06
1433 H 112.29776270794576 173.65913626413555 34.64258200854664 H 0.0 **** 0.06
1434 H 111.9882865616512 173.70673775911996 36.395991834757865 H 0.0 **** 0.06
1435 H 111.82846549707159 172.17306023608768 35.50504915193494 H 0.0 **** 0.06
1436 C 51.042655155275895 178.2909956098976 178.3997682619924 C 0.0 **** -0.24
1437 H 50.48272793574098 178.31276954430103 179.33473444807584 H 0.0 **** 0.06
1438 H 51.7882340889543 179.086112952162 178.40532070352748 H 0.0 **** 0.06
1439 H 50.359162135882116 178.43802980116266 177.56387318039435 H 0.0 **** 0.06
1440 H 51.54030379938861 177.32692336515385 178.2973676558786 H 0.0 **** 0.06
1441 C 8.927455549029276 15.575665541270979 38.310597879447755 C 0.0 **** -0.24
1442 H 8.109515666572605 16.240467337937957 38.02979309677818 H 0.0 **** 0.06
1443 H 8.71609097996091 14.568421454819457 37.95029279269491 H 0.0 **** 0.06
1444 H 9.025666684014453 15.560311925421075 39.39602047029547 H 0.0 **** 0.06
1445 H 9.85571715661115 15.934367145180687 37.86588346479985 H 0.0 **** 0.06
1446 C 143.09876777565523 38.992655073410674 142.15618033528466 C 0.0 **** -0.24
1447 H 142.67537726100517 38.32617117212715 141.40579176518673 H 0.0 **** 0.06
1448 H 143.09710566393156 38.493973435538805 143.12677051122913 H 0.0 **** 0.06
1449 H 142.4998506343016 39.901913366229735 142.21427505002742 H 0.0 **** 0.06
1450 H 144.12177912541392 39.24815236308092 141.88051338120653 H 0.0 **** 0.06
1451 C 52.621672380385334 71.02455691321053 154.65623596544697 C 0.0 **** -0.24
1452 H 52.0949806622737 70.07167024757776 154.70242238796186 H 0.0 **** 0.06
1453 H 52.497301366911955 71.55479873704743 155.60059121143368 H 0.0 **** 0.06
1454 H 52.212418274075745 71.6271765353329 153.84508120628473 H 0.0 **** 0.06
1455 H 53.681309851802965 70.84529565970732 154.4766776928171 H 0.0 **** 0.06
1456 C 40.55311717747975 84.05649749000892 54.517834962196204 C 0.0 **** -0.24
1457 H 41.54132291287965 83.76931464806002 54.15871687538484 H 0.0 **** 0.06
1458 H 39.90393386109591 83.18110267234235 54.536470899566 H 0.0 **** 0.06
1459 H 40.129441901439236 84.80853759390641 53.85204121645923 H 0.0 **** 0.06
1460 H 40.63806100962961 84.46798935743747 55.52417902885155 H 0.0 **** 0.06
1461 C 37.982853784997246 185.20328036838293 12.935306539262257 C 0.0 **** -0.24
1462 H 38.9516562475942 185.59101793279513 12.619731282270749 H 0.0 **** 0.06
1463 H 37.23284457010999 185.98981685065033 12.85222885443909 H 0.0 **** 0.06
1464 H 38.04601076948467 184.86727476203808 13.970468265562602 H 0.0 **** 0.06
1465 H 37.702879108670714 184.36447407811173 12.297898855436557 H 0.0 **** 0.06
1466 C 105.65402051632104 98.79605453050131 71.823982789565 C 0.0 **** -0.24
1467 H 105.67657812946699 98.79808496721903 70.7341890493766 H 0.0 **** 0.06
1468 H 106.6511377369465 98.57866776990612 72.20773612738934 H 0.0 **** 0.06
1469 H 104.95588087670585 98.03323706471194 72.1705617170021 H 0.0 **** 0.06
1470 H 105.33125513269435 99.77333687520344 72.18214347296345 H 0.0 **** 0.06
1471 C 56.17409052145621 16.805678778006907 157.50244771622312 C 0.0 **** -0.24
1472 H 55.80989096544863 15.785065315773998 157.38417171784823 H 0.0 **** 0.06
1473 H 56.51010561123934 16.955104933827137 158.52809874078446 H 0.0 **** 0.06
1474 H 55.37039561187726 17.50695278270014 157.27686039788136 H 0.0 **** 0.06
1475 H 57.006431857104076 16.974875183449306 156.81836375030923 H 0.0 **** 0.06
1476 C 70.9625526712789 162.20291567444713 136.01344631875708 C 0.0 **** -0.24
1477 H 70.8298627206205 163.27169751628597 135.8471180243144 H 0.0 **** 0.06
1478 H 72.02538033434024 161.96083695229424 135.99186789944793 H 0.0 **** 0.06
1479 H 70.44645696243106 161.6463046046967 135.23015024470033 H 0.0 **** 0.06
1480 H 70.54748657926905 161.93186163036881 136.98480991557153 H 0.0 **** 0.06
1481 C 103.8828300954956 139.87106082040287 37.749292660857236 C 0.0 **** -0.24
1482 H 103.69765986587011 139.00260645945002 38.3816805006893 H 0.0 **** 0.06
1483 H 104.92870988766403 139.88127033145088 37.44439831775355 H 0.0 **** 0.06
1484 H 103.65686373464395 140.7811716778561 38.30572128675203 H 0.0 **** 0.06
1485 H 103.2468619690459 139.81853359065826 36.86562032608998 H 0.0 **** 0.06
1486 C 176.64922587215256 69.69559608134962 69.06190831364343 C 0.0 **** -0.24
1487 H 176.35019410614365 70.68400965395412 69.41388136534214 H 0.0 **** 0.06
1488 H 177.4441327832476 69.7985560933846 68.32372840049614 H 0.0 **** 0.06
1489 H 175.79265624268928 69.19804142181037 68.60746009184636 H 0.0 **** 0.06
1490 H 177.00903254916375 69.10471304631155 69.9041735658873 H 0.0 **** 0.06
1491 C 3.42951062008774 117.67295963020779 163.2429161432467 C 0.0 **** -0.24
1492 H 3.036528218821786 117.1705110785514 162.35964912673143 H 0.0 **** 0.06
1493 H 3.645134228091706 116.93354347687084 164.01455828109408 H 0.0 **** 0.06
1494 H 2.691904453156951 118.38395551612477 163.6149555943829 H 0.0 **** 0.06
1495 H 4.345127869594535 118.20291384127135 162.98164246644035 H 0.0 **** 0.06
1496 C 19.40337066062269 63.23410388691815 176.1756690654126 C 0.0 **** -0.24
1497 H 19.08801697966677 63.38480510999278 177.20841665118772 H 0.0 **** 0.06
1498 H 19.95534874752171 64.1104918235726 175.8332909335589 H 0.0 **** 0.06
1499 H 18.52644797381241 63.08770142659853 175.54597449220168 H 0.0 **** 0.06
1500 H 20.04486437414691 62.354769506227 176.1166501808181 H 0.0 **** 0.06
1501 C 5.647993183587403 121.13226784993226 27.05353184059061 C 0.0 **** -0.24
1502 H 6.222069413637428 120.23046494272914 27.26666645824622 H 0.0 **** 0.06
1503 H 6.328975104563966 121.94377829885447 26.79494954474478 H 0.0 **** 0.06
1504 H 5.068147058945641 121.41011992219369 27.933885786120698 H 0.0 **** 0.06
1505 H 4.973090842222746 120.94377747269472 26.217606836593177 H 0.0 **** 0.06
1506 C 128.59716017933704 21.788069113038716 24.682398851843146 C 0.0 **** -0.24
1507 H 128.93722318981355 20.919514471422936 24.1189493581806 H 0.0 **** 0.06
1508 H 129.25137966280215 22.634491152602365 24.47526376851991 H 0.0 **** 0.06
1509 H 128.6218209871809 21.56210364804258 25.74878613369833 H 0.0 **** 0.06
1510 H 127.57715657083718 22.03484115959185 24.386938920168404 H 0.0 **** 0.06
1511 C 149.63742634051516 79.41207386098542 101.17681524919702 C 0.0 **** -0.24
1512 H 149.96380278626313 78.702252678439 101.93670120122304 H 0.0 **** 0.06
1513 H 150.41834449734222 79.5222850887944 100.4239117366897 H 0.0 **** 0.06
1514 H 149.44074265548244 80.37787807903521 101.64241068206114 H 0.0 **** 0.06
1515 H 148.72619007807918 79.04427408117044 100.70406036080068 H 0.0 **** 0.06
1516 C 15.605255048851014 34.229754172167844 127.84925764423524 C 0.0 **** -0.24
1517 H 14.764621746979344 33.89435788829695 128.4556035157048 H 0.0 **** 0.06
1518 H 16.37916385233423 33.46151524033647 127.84495688930015 H 0.0 **** 0.06
1519 H 16.010256089798396 35.15118160636871 128.26807623561575 H 0.0 **** 0.06
1520 H 15.267677965354864 34.41207034199061 126.82910035949816 H 0.0 **** 0.06
1521 C 77.78401311036129 57.18580802088144 142.74647209461483 C 0.0 **** -0.24
1522 H 78.70236254641807 56.73962618872572 143.1263173462242 H 0.0 **** 0.06
1523 H 77.13276139085525 57.44346874594447 143.58231091734515 H 0.0 **** 0.06
1524 H 77.27597096664148 56.47427071712977 142.0961135854708 H 0.0 **** 0.06
1525 H 78.02456028296298 58.087178900445835 142.181492454408 H 0.0 **** 0.06
1526 C 16.363097210088654 53.40352604283328 55.459213650071135 C 0.0 **** -0.24
1527 H 16.393878017523548 54.13553184124896 56.2662448859232 H 0.0 **** 0.06
1528 H 17.10249109697233 52.62378632420773 55.64747162410369 H 0.0 **** 0.06
1529 H 16.587180301685578 53.89612316130062 54.512582131596744 H 0.0 **** 0.06
1530 H 15.369233109025771 52.95746180304225 55.411190435533655 H 0.0 **** 0.06
1531 C 177.66484352483124 111.11221382062512 132.39283253056374 C 0.0 **** -0.24
1532 H 177.22163477086025 112.09758886450665 132.53015456404825 H 0.0 **** 0.06
1533 H 177.4170579162208 110.48081869910276 133.24587464377788 H 0.0 **** 0.06
1534 H 178.7471907748666 111.20734684952497 132.31372837274557 H 0.0 **** 0.06
1535 H 177.27207397738056 110.66147235666524 131.48098846599373 H 0.0 **** 0.06
1536 C 73.95530237171505 155.30840360595164 128.27789659763687 C 0.0 **** -0.24
1537 H 73.97542365505791 156.3439703906427 127.93831607400993 H 0.0 **** 0.06
1538 H 73.1276012191412 155.17067907367002 128.9732498211079 H 0.0 **** 0.06
1539 H 74.89464301525193 155.07227643377996 128.77844079249667 H 0.0 **** 0.06
1540 H 73.82409469874244 154.64847064721832 127.4203475319086 H 0.0 **** 0.06
1541 C 136.32376207120507 61.18144761626685 13.642585541843118 C 0.0 **** -0.24
1542 H 135.92590067450323 60.20309299189108 13.37262090085133 H 0.0 **** 0.06
1543 H 137.36223269034633 61.253430690998556 13.316966729230955 H 0.0 **** 0.06
1544 H 136.2733907824785 61.30878650935598 14.723653017497213 H 0.0 **** 0.06
1545 H 135.73504431019245 61.95918446646775 13.15700122166362 H 0.0 **** 0.06
1546 C 5.9872226919336455 72.09705313685023 151.36986992613464 C 0.0 **** -0.24
1547 H 7.071462455248962 72.08771371296855 151.2633981140119 H 0.0 **** 0.06
1548 H 5.56179172097098 71.24632250814416 150.83732485255888 H 0.0 **** 0.06
1549 H 5.589025980231803 73.02213176591358 150.95259869471317 H 0.0 **** 0.06
1550 H 5.724611264297849 72.03301618294891 152.42591579383372 H 0.0 **** 0.06
1551 C 180.8467934838789 78.1310734579796 167.22926927564924 C 0.0 **** -0.24
1552 H 180.54086084848166 77.89028933385097 168.24730738309316 H 0.0 **** 0.06
1553 H 180.0202452768782 78.6113273221065 166.70542802678477 H 0.0 **** 0.06
1554 H 181.1239946820159 77.21396071285072 166.70810700975525 H 0.0 **** 0.06
1555 H 181.7027957061631 78.80566451521327 167.25731346324739 H 0.0 **** 0.06
1556 C 171.68387775482176 63.211122706147265 20.264367012924502 C 0.0 **** -0.24
1557 H 171.95659664117915 64.01747089104899 20.944403298917663 H 0.0 **** 0.06
1558 H 171.43565746786487 62.31909774628657 20.840849936969967 H 0.0 **** 0.06
1559 H 172.52264805334704 62.994691022681224 19.60378466193034 H 0.0 **** 0.06
1560 H 170.82129621998752 63.51226013890211 19.67032350136622 H 0.0 **** 0.06
1561 C 55.65884441649416 123.36245310998856 56.18095541038758 C 0.0 **** -0.24
1562 H 55.3367277880906 124.04175182482311 55.390905710277366 H 0.0 **** 0.06
1563 H 55.300925944660605 122.35638160148477 55.962595965513515 H 0.0 **** 0.06
1564 H 55.24992388795559 123.69583414418838 57.13468044772728 H 0.0 **** 0.06
1565 H 56.747619211328185 123.35784251898394 56.23423351527765 H 0.0 **** 0.06
1566 C 137.7375967180289 65.29615439941989 67.05206059729925 C 0.0 **** -0.24
1567 H 138.2175209719698 64.6573425739038 67.79337127542902 H 0.0 **** 0.06
1568 H 136.65480866127297 65.1999619887182 67.1369394928033 H 0.0 **** 0.06
1569 H 138.05171624811123 64.99242857106515 66.05348465900033 H 0.0 **** 0.06
1570 H 138.02591570382106 66.33208845024262 67.22440651634108 H 0.0 **** 0.06
1571 C 8.849159902043226 97.15293267256351 151.72348709860313 C 0.0 **** -0.24
1572 H 8.280519497161578 97.49713423848152 150.86078628998715 H 0.0 **** 0.06
1573 H 8.746050192367278 96.07151155987964 151.81871395648488 H 0.0 **** 0.06
1574 H 8.470973895369895 97.63465785363758 152.62453900039657 H 0.0 **** 0.06
1575 H 9.901494724799306 97.40664288169188 151.59016062077535 H 0.0 **** 0.06
1576 C 185.0302717932135 46.37249234997307 162.54064323383307 C 0.0 **** -0.24
1577 H 183.94836885938676 46.35548172312343 162.66714229124315 H 0.0 **** 0.06
1578 H 185.2984872462789 45.835674778852194 161.6304521876114 H 0.0 **** 0.06
1579 H 185.50446221486632 45.894077626308444 163.39808896411674 H 0.0 **** 0.06
1580 H 185.3704747360211 47.4056619219277 162.46769142553697 H 0.0 **** 0.06
1581 C 150.67468135419784 21.353150707164914 69.42511715987825 C 0.0 **** -0.24
1582 H 149.60743777808074 21.57026671001526 69.45888302512179 H 0.0 **** 0.06
1583 H 150.82464156712763 20.277250672236136 69.33767344912798 H 0.0 **** 0.06
1584 H 151.14737659293837 21.713203233422007 70.33982847728225 H 0.0 **** 0.06
1585 H 151.11963517807607 21.85344766796186 68.56593186625622 H 0.0 **** 0.06
1586 C 156.41226112696665 117.1407731038466 121.09430598643978 C 0.0 **** -0.24
1587 H 156.40224662364372 116.05946541469656 121.23694466682143 H 0.0 **** 0.06
1588 H 155.4029489463087 117.53232371965841 121.22158679195896 H 0.0 **** 0.06
1589 H 156.77022490684243 117.37145584152718 120.09154193639641 H 0.0 **** 0.06
1590 H 157.0742081813711 117.5969204934123 121.83062794529947 H 0.0 **** 0.06
1591 C 117.40038578830062 3.4839546595842137 8.175084941374507 C 0.0 **** -0.24
1592 H 117.72730258467207 2.557951245212365 7.702371031108868 H 0.0 **** 0.06
1593 H 116.32532882256693 3.4424804439243246 8.349574965290941 H 0.0 **** 0.06
1594 H 117.6309256572661 4.325781579914775 7.5227084003341815 H 0.0 **** 0.06
1595 H 117.91916937617397 3.609028290322499 9.126201953750694 H 0.0 **** 0.06
1596 C 38.75536496876643 125.33370029118534 81.60940599437987 C 0.0 **** -0.24
1597 H 39.83168644797577 125.18181079115301 81.5323670376299 H 0.0 **** 0.06
1598 H 38.27349527728116 124.99715643903714 80.6909691587252 H 0.0 **** 0.06
1599 H 38.54896612852119 126.39400946683129 81.76071156176658 H 0.0 **** 0.06
1600 H 38.36723032335907 124.76399817765666 82.45409432569397 H 0.0 **** 0.06
1601 C 134.19790977528498 65.37826225724866 182.0073878695014 C 0.0 **** -0.24
1602 H 133.3012584524477 65.98985161444219 181.90555843432307 H 0.0 **** 0.06
1603 H 134.42951550123098 65.24681528765173 183.06412191024395 H 0.0 **** 0.06
1604 H 135.03236222168664 65.87185605873375 181.51005235202655 H 0.0 **** 0.06
1605 H 134.02677314494446 64.40408966273209 181.54814022343933 H 0.0 **** 0.06
1606 C 17.79346992034806 96.98575346481363 67.16982777289881 C 0.0 **** -0.24
1607 H 18.404337491548716 96.97929673911625 66.26762244068905 H 0.0 **** 0.06
1608 H 17.679785129525385 98.01146559800083 67.52337663579509 H 0.0 **** 0.06
1609 H 18.27805291379977 96.38714113660143 67.94093149983686 H 0.0 **** 0.06
1610 H 16.812293483395678 96.5670120467625 66.94718955589543 H 0.0 **** 0.06
1611 C 104.34704184867856 173.69792815836615 8.538634581912248 C 0.0 **** -0.24
1612 H 103.468989962371 174.10466038992712 8.038062796639224 H 0.0 **** 0.06
1613 H 104.85318661468092 172.9993243782942 7.872234099536513 H 0.0 **** 0.06
1614 H 104.03825890092698 173.17765843999842 9.446026397125479 H 0.0 **** 0.06
1615 H 105.02612395941686 174.51015031214905 8.79885378681584 H 0.0 **** 0.06
1616 C 70.16540284637256 32.135207007556716 133.9139334626572 C 0.0 **** -0.24
1617 H 70.10959398680188 31.96550360503815 134.98952469871983 H 0.0 **** 0.06
1618 H 70.49589050509314 33.15650392176855 133.72485971617652 H 0.0 **** 0.06
1619 H 69.18127131349502 31.98342878610083 133.47061883381133 H 0.0 **** 0.06
1620 H 70.8749267784566 31.43492968382776 133.47267522391718 H 0.0 **** 0.06
1621 C 67.06997818391557 52.33882295672096 107.58581335437208 C 0.0 **** -0.24
1622 H 68.02861720361291 52.251321867542785 108.09664125091126 H 0.0 **** 0.06
1623 H 67.21191445354084 52.839722465773164 106.62837503712575 H 0.0 **** 0.06
1624 H 66.3824647842369 52.919432290795754 108.20161243818495 H 0.0 **** 0.06
1625 H 66.65634860869193 51.34423112931279 107.41845135219182 H 0.0 **** 0.06
1626 C 5.773857094977068 63.410984797394164 79.13777055928159 C 0.0 **** -0.24
1627 H 6.07102033995298 64.19791198314391 79.83027323012342 H 0.0 **** 0.06
1628 H 5.22541745973097 63.84926731374861 78.30447544665964 H 0.0 **** 0.06
1629 H 5.136342215482628 62.69422724325554 79.65577901485922 H 0.0 **** 0.06
1630 H 6.662179714260951 62.903066958333014 78.76213408809716 H 0.0 **** 0.06
1631 C 0.8720095345174741 27.56017805278333 111.94196427997063 C 0.0 **** -0.24
1632 H 0.012065053541419957 26.89072913018441 111.98353379802994 H 0.0 **** 0.06
1633 H 0.7690097220855705 28.230624924585868 111.08924898608159 H 0.0 **** 0.06
1634 H 1.7841419310140623 26.973286436824935 111.83725960953085 H 0.0 **** 0.06
1635 H 0.9203065479140662 28.145270757103845 112.8612837736125 H 0.0 **** 0.06
1636 C 116.53526473294659 146.59687230367263 141.0691671537441 C 0.0 **** -0.24
1637 H 116.62639152545671 146.76596803887543 139.99708793208868 H 0.0 **** 0.06
1638 H 115.91108726358834 147.37539722996814 141.5080598452114 H 0.0 **** 0.06
1639 H 117.52417436728683 146.62143702856145 141.5260146684538 H 0.0 **** 0.06
1640 H 116.0776148787682 145.62238388030016 141.24480693239707 H 0.0 **** 0.06
1641 C 106.63662575135531 56.227363922919224 32.622423013026435 C 0.0 **** -0.24
1642 H 107.47304313829439 55.66590864065131 33.0402905962554 H 0.0 **** 0.06
1643 H 106.97085208123 56.77370792679035 31.73989517969109 H 0.0 **** 0.06
1644 H 106.26381010909942 56.93097455159558 33.36654056766932 H 0.0 **** 0.06
1645 H 105.83991162095275 55.53755347408983 32.342765151373754 H 0.0 **** 0.06
1646 C 54.77887229986953 141.44574142463927 69.57772578030774 C 0.0 **** -0.24
1647 H 53.82039316732221 141.80842353161864 69.20905959476326 H 0.0 **** 0.06
1648 H 54.61446739601121 140.78963140579083 70.43294683594384 H 0.0 **** 0.06
1649 H 55.39575495438248 142.29176941975373 69.88195727786604 H 0.0 **** 0.06
1650 H 55.28591653539655 140.89227531587073 68.78653629292252 H 0.0 **** 0.06
1651 C 52.91544703383855 0.9574681226147703 81.26639372267066 C 0.0 **** -0.24
1652 H 52.840688939126 0.2479961352977753 82.09125438979369 H 0.0 **** 0.06
1653 H 52.21282301818199 1.7755996040218065 81.4261646397898 H 0.0 **** 0.06
1654 H 52.6770001133623 0.45164012598199577 80.32988717799537 H 0.0 **** 0.06
1655 H 53.929767798375096 1.3520513890477162 81.21806396516855 H 0.0 **** 0.06
1656 C 163.92332042118676 45.64649795478471 4.105779241976933 C 0.0 **** -0.24
1657 H 164.01334747157432 46.295940506538216 4.977510225275523 H 0.0 **** 0.06
1658 H 164.7014260464744 45.89754891770065 3.3846215449065085 H 0.0 **** 0.06
1659 H 162.94461016650547 45.78691914940816 3.647838777598082 H 0.0 **** 0.06
1660 H 164.0348825404019 44.607476265799136 4.413815208784115 H 0.0 **** 0.06
1661 C 179.37870515213535 161.9785225625372 68.38619696396363 C 0.0 **** -0.24
1662 H 180.17225177791357 161.23138351020606 68.40706222223612 H 0.0 **** 0.06
1663 H 179.2232157148567 162.31464593763206 67.36149044401334 H 0.0 **** 0.06
1664 H 179.66312115708124 162.8268823924161 69.00845775440133 H 0.0 **** 0.06
1665 H 178.45765480746792 161.5396840148743 68.76995516505667 H 0.0 **** 0.06
1666 C 178.85673848215333 163.93603762784153 81.7128284526887 C 0.0 **** -0.24
1667 H 177.85343514168892 164.3192784014384 81.90204607648836 H 0.0 **** 0.06
1668 H 178.7878600768057 162.944790695294 81.2642789489207 H 0.0 **** 0.06
1669 H 179.40467053304542 163.87310584449062 82.65351407797817 H 0.0 **** 0.06
1670 H 179.379222424749 164.6079895792593 81.03239884362223 H 0.0 **** 0.06
1671 C 2.393546701352399 20.784912136243456 39.884620532327304 C 0.0 **** -0.24
1672 H 1.370636168838871 20.62557808683556 40.22735234218591 H 0.0 **** 0.06
1673 H 2.3785949633516807 21.203089259119615 38.87792310342196 H 0.0 **** 0.06
1674 H 2.9259481223815555 19.834231125254327 39.875582484653435 H 0.0 **** 0.06
1675 H 2.897905768871624 21.477793431467973 40.55845939683722 H 0.0 **** 0.06
1676 C 10.96106458314506 116.45364224165282 183.65417557023522 C 0.0 **** -0.24
1677 H 11.038683788612161 115.43168435902 184.02686275589016 H 0.0 **** 0.06
1678 H 10.231854465096518 116.49050057192552 182.84431295705357 H 0.0 **** 0.06
1679 H 11.932669280472652 116.77949841516745 183.2834365538785 H 0.0 **** 0.06
1680 H 10.641415862335037 117.11128089044784 184.46154997344155 H 0.0 **** 0.06
1681 C 41.55034214703791 80.21195017602398 32.72041982038243 C 0.0 **** -0.24
1682 H 41.012921366967475 80.39763993973834 33.650680318556795 H 0.0 **** 0.06
1683 H 42.22564537036813 81.04433009683918 32.51943072490516 H 0.0 **** 0.06
1684 H 40.837591714360514 80.11578913012293 31.901562549904725 H 0.0 **** 0.06
1685 H 42.12629129103772 79.29116832787105 32.81236400233064 H 0.0 **** 0.06
1686 C 24.160673330492898 87.28674428247398 137.5489040172132 C 0.0 **** -0.24
1687 H 23.39447045603822 86.94829640364621 136.8508412896806 H 0.0 **** 0.06
1688 H 23.769970002489742 88.11187588093243 138.1446868018703 H 0.0 **** 0.06
1689 H 25.035819282102665 87.62245710158878 136.99166631722846 H 0.0 **** 0.06
1690 H 24.441284973165637 86.4645677441999 138.20626934798145 H 0.0 **** 0.06
1691 C 153.48153151783612 81.28845563231286 95.40136790009025 C 0.0 **** -0.24
1692 H 152.85735028437747 82.12845606207722 95.70526659300312 H 0.0 **** 0.06
1693 H 152.89790095535471 80.36921431796132 95.44411272189457 H 0.0 **** 0.06
1694 H 154.3365044311155 81.20883208769447 96.07315118695529 H 0.0 **** 0.06
1695 H 153.8349314450163 81.44834774015088 94.38214790552642 H 0.0 **** 0.06
1696 C 81.47340893000684 36.80310753974224 35.38751983404245 C 0.0 **** -0.24
1697 H 82.35039871877872 36.97136806520871 34.76163590297773 H 0.0 **** 0.06
1698 H 81.65166391807935 35.94833405251613 36.039492067055335 H 0.0 **** 0.06
1699 H 80.60795390261042 36.60526544634871 34.75505681822767 H 0.0 **** 0.06
1700 H 81.28509750944522 37.68936437740028 35.99433942463264 H 0.0 **** 0.06
1701 C 122.34437697326753 181.11159934113314 55.14029272832835 C 0.0 **** -0.24
1702 H 123.08339943227519 181.91177151425416 55.12935548493829 H 0.0 **** 0.06
1703 H 121.34242497806143 181.5417639322689 55.13887567193012 H 0.0 **** 0.06
1704 H 122.47923233753745 180.504527199491 56.03601134030117 H 0.0 **** 0.06
1705 H 122.47303047082399 180.48684570379854 54.25625961787438 H 0.0 **** 0.06
1706 C 40.96361560112308 121.70944872992068 68.56775903559333 C 0.0 **** -0.24
1707 H 40.78284671742358 122.19791947378489 69.52587037300428 H 0.0 **** 0.06
1708 H 40.121334525028004 121.06175126696674 68.32585423433608 H 0.0 **** 0.06
1709 H 41.87391616462048 121.11420764219305 68.62969660500673 H 0.0 **** 0.06
1710 H 41.07591683015755 122.46553520416818 67.79109113645835 H 0.0 **** 0.06
1711 C 115.21221372265457 162.9365056497923 172.45258722463973 C 0.0 **** -0.24
1712 H 116.13845567962032 163.4845398729882 172.62757496697887 H 0.0 **** 0.06
1713 H 115.01307703336012 162.28096076017323 173.30083533698271 H 0.0 **** 0.06
1714 H 115.30967055257328 162.33834708464803 171.54602068738123 H 0.0 **** 0.06
1715 H 114.3893977349231 163.64148384430592 172.3371318642692 H 0.0 **** 0.06
1716 C 126.1798633222201 176.90474222418868 18.79370648136984 C 0.0 **** -0.24
1717 H 125.15311368786426 176.54322672704507 18.851595174437932 H 0.0 **** 0.06
1718 H 126.7899773765645 176.38798719593967 19.535433842076543 H 0.0 **** 0.06
1719 H 126.19840906756387 177.97652807615168 18.990606200939737 H 0.0 **** 0.06
1720 H 126.57795315688786 176.71122689761845 17.797190708025084 H 0.0 **** 0.06
1721 C 84.68374926919958 162.9991655411714 32.761077413721296 C 0.0 **** -0.24
1722 H 83.68725451500954 162.5787461297416 32.90211685768929 H 0.0 **** 0.06
1723 H 84.80058473650506 163.8767217094354 33.39827365482358 H 0.0 **** 0.06
1724 H 84.81204496215183 163.28735968397217 31.71787000053962 H 0.0 **** 0.06
1725 H 85.43257076032965 162.25413837226068 33.02761300992984 H 0.0 **** 0.06
1726 C 60.28953999170861 67.9135657926653 4.172552187287344 C 0.0 **** -0.24
1727 H 59.60118957364459 68.57474665720125 4.699741858701735 H 0.0 **** 0.06
1728 H 59.847259931315705 67.61425000147608 3.221654295381171 H 0.0 **** 0.06
1729 H 60.47995186483068 67.0291556882103 4.780026823094488 H 0.0 **** 0.06
1730 H 61.22660439809049 68.43783308739546 3.9884939530573575 H 0.0 **** 0.06
1731 C 175.68706478016122 62.57420460891629 2.57717535410071 C 0.0 **** -0.24
1732 H 174.78134772346087 61.98923584955634 2.7357550377178868 H 0.0 **** 0.06
1733 H 175.43751243601685 63.636092755760586 2.579072310899683 H 0.0 **** 0.06
1734 H 176.12830473331405 62.30622630454653 1.6170324989980145 H 0.0 **** 0.06
1735 H 176.39792781534732 62.36609036470388 3.3757055820563338 H 0.0 **** 0.06
1736 C 20.1841314071049 5.440463637314309 86.57694361251386 C 0.0 **** -0.24
1737 H 20.556469762249534 6.433470638553388 86.82707875068228 H 0.0 **** 0.06
1738 H 19.894111801559326 5.415196944545954 85.52620215844944 H 0.0 **** 0.06
1739 H 19.31782546248173 5.211511623280785 87.19802441422594 H 0.0 **** 0.06
1740 H 20.96616161939574 4.702684691706793 86.75685843004656 H 0.0 **** 0.06
1741 C 12.799710877024062 117.42577035605365 37.99740165583148 C 0.0 **** -0.24
1742 H 13.483387333558099 117.97909645239946 38.64021349819865 H 0.0 **** 0.06
1743 H 12.74090263946863 117.91367472465839 37.02382407152567 H 0.0 **** 0.06
1744 H 11.810459237671736 117.4032618325171 38.45378845081211 H 0.0 **** 0.06
1745 H 13.16480039972275 116.40634727424464 37.871681373921405 H 0.0 **** 0.06
1746 C 115.00344236955608 150.92256310281977 68.14767263267679 C 0.0 **** -0.24
1747 H 115.18466770388197 150.35289070697482 69.05821206731784 H 0.0 **** 0.06
1748 H 115.95472853111134 151.14682205432712 67.6640891867743 H 0.0 **** 0.06
1749 H 114.49358805995665 151.85332385429246 68.39725704930889 H 0.0 **** 0.06
1750 H 114.38074000344828 150.33766733282704 67.46979277875455 H 0.0 **** 0.06
1751 C 74.3961381733045 61.02783544205022 139.90569120804253 C 0.0 **** -0.24
1752 H 74.95952850800934 60.21099565339759 139.45516324938717 H 0.0 **** 0.06
1753 H 73.84564447482934 60.656017238029634 140.7702831880257 H 0.0 **** 0.06
1754 H 73.69449267176402 61.43131358428762 139.1746854789646 H 0.0 **** 0.06
1755 H 75.08375677759553 61.812913925106585 140.22098599941944 H 0.0 **** 0.06
1756 C 95.76109856108809 59.56389292675149 17.547357401105728 C 0.0 **** -0.24
1757 H 96.16217312291002 58.76347097610849 16.92528082203711 H 0.0 **** 0.06
1758 H 95.07101497360901 60.16969386415877 16.95944818347823 H 0.0 **** 0.06
1759 H 96.57853958638941 60.18896562319128 17.907024833740053 H 0.0 **** 0.06
1760 H 95.23242054744225 59.13164820460236 18.396824538222234 H 0.0 **** 0.06
1761 C 42.94313320899121 136.0034627566772 8.661245012341283 C 0.0 **** -0.24
1762 H 42.565175583701816 136.9300813247582 8.23105390672805 H 0.0 **** 0.06
1763 H 42.85440044933934 136.0430341794824 9.746780343995852 H 0.0 **** 0.06
1764 H 43.98982765253493 135.87600110494964 8.386416677304851 H 0.0 **** 0.06
1765 H 42.362691196177806 135.1628027033849 8.279691431503295 H 0.0 **** 0.06
1766 C 170.30830681239482 104.78584619393331 26.860802886975662 C 0.0 **** -0.24
1767 H 169.87955040087462 105.3854427619874 26.05781268818626 H 0.0 **** 0.06
1768 H 170.7442329838276 103.87778662159639 26.443779434985004 H 0.0 **** 0.06
1769 H 169.52591863851447 104.52062359566838 27.57219032919329 H 0.0 **** 0.06
1770 H 171.0823465109632 105.36028893348015 27.36962254579467 H 0.0 **** 0.06
1771 C 10.364856436783299 165.76617294064073 48.646337529960704 C 0.0 **** -0.24
1772 H 11.391821418035818 165.50087617925027 48.90045355912059 H 0.0 **** 0.06
1773 H 10.055171057465593 165.2093375893025 47.76157499843022 H 0.0 **** 0.06
1774 H 10.30535278630272 166.83536527298492 48.44316904692731 H 0.0 **** 0.06
1775 H 9.70923853060171 165.51802420424082 49.480550158547956 H 0.0 **** 0.06
1776 C 141.21707781894645 165.78202010641823 148.83362190785095 C 0.0 **** -0.24
1777 H 141.5626887523136 165.92311069522228 147.8097513687238 H 0.0 **** 0.06
1778 H 140.92163566163475 166.74409120238587 149.25335458998143 H 0.0 **** 0.06
1779 H 142.02102310118374 165.355464644921 149.43280615732596 H 0.0 **** 0.06
1780 H 140.36164411666738 165.10588258919967 148.83837827487972 H 0.0 **** 0.06
1781 C 106.78325026185934 41.264350694287884 60.63738919169951 C 0.0 **** -0.24
1782 H 106.5408015391792 42.12050523508367 60.007864464698756 H 0.0 **** 0.06
1783 H 106.88856949030065 40.3739289533151 60.01528918610053 H 0.0 **** 0.06
1784 H 105.98410778744528 41.10837102869587 61.361692995147365 H 0.0 **** 0.06
1785 H 107.71903068174441 41.45350798921095 61.16282032224923 H 0.0 **** 0.06
1786 C 109.44990049620274 118.16600198119987 109.0938743453674 C 0.0 **** -0.24
1787 H 110.19978187778999 118.93317585453646 108.89613570166387 H 0.0 **** 0.06
1788 H 108.8329296357456 118.02457952977174 108.20695721825268 H 0.0 **** 0.06
1789 H 108.82192750817917 118.47997063270508 109.92766207378344 H 0.0 **** 0.06
1790 H 109.94696318161682 117.22906210492569 109.3452619321036 H 0.0 **** 0.06
1791 C 19.89686692371979 89.0026710588685 134.83063620887646 C 0.0 **** -0.24
1792 H 19.977033360099334 89.27330963979254 133.77715317686977 H 0.0 **** 0.06
1793 H 20.293381494197384 89.81216853558156 135.443944783365 H 0.0 **** 0.06
1794 H 20.467243032144104 88.09264520436464 135.0148002247858 H 0.0 **** 0.06
1795 H 18.850197277997594 88.83359680886595 135.08307215549132 H 0.0 **** 0.06
1796 C 40.405693403773 137.47489075029478 171.67391956946588 C 0.0 **** -0.24
1797 H 41.44516694674175 137.7346998200759 171.4751499806219 H 0.0 **** 0.06
1798 H 40.341672396372616 136.92529156809036 172.6131668312225 H 0.0 **** 0.06
1799 H 40.02573631196515 136.85345512234693 170.86205395816802 H 0.0 **** 0.06
1800 H 39.8104216246667 138.38447364812816 171.74418896353868 H 0.0 **** 0.06
1801 C 105.58237438069919 89.21792933994755 163.5470164359673 C 0.0 **** -0.24
1802 H 106.49398777929973 89.78549173860085 163.73225218557866 H 0.0 **** 0.06
1803 H 105.67375638018548 88.228324226175 163.9965021997433 H 0.0 **** 0.06
1804 H 105.43055350105955 89.1156935537652 162.47281970798463 H 0.0 **** 0.06
1805 H 104.73256019445579 89.74043867496056 163.98635139895796 H 0.0 **** 0.06
1806 C 160.13521364396314 175.20420287762482 160.5683452207584 C 0.0 **** -0.24
1807 H 160.66569875235143 175.81951872271145 161.29458643948578 H 0.0 **** 0.06
1808 H 160.48740955291595 174.17419594279139 160.63987261292866 H 0.0 **** 0.06
1809 H 160.32299950683162 175.58313244691573 159.56366556153006 H 0.0 **** 0.06
1810 H 159.06645185369928 175.2384281996906 160.77611237134465 H 0.0 **** 0.06
1811 C 9.799112549568875 6.1834796559597365 100.72689575738038 C 0.0 **** -0.24
1812 H 10.067107281261364 5.6463892020266115 99.81624101061134 H 0.0 **** 0.06
1813 H 8.758424834476678 6.503570607250374 100.66544452035764 H 0.0 **** 0.06
1814 H 10.442723511111794 7.056539952267954 100.83645405951431 H 0.0 **** 0.06
1815 H 9.92766778701914 5.526387078582438 101.5866761040392 H 0.0 **** 0.06
1816 C 13.41717238595129 34.70829347507858 64.13965600928613 C 0.0 **** -0.24
1817 H 14.449781704185398 34.434280599732105 63.92646766195723 H 0.0 **** 0.06
1818 H 13.259803309164965 34.718464649650315 65.21852342557412 H 0.0 **** 0.06
1819 H 12.745928118344409 33.98251241505909 63.680864834259 H 0.0 **** 0.06
1820 H 13.213302477312482 35.699164498810205 63.733420799529966 H 0.0 **** 0.06
1821 C 145.23257840751927 20.10172939094126 145.03188657157165 C 0.0 **** -0.24
1822 H 145.42382813641495 19.472326333510296 145.90148631636168 H 0.0 **** 0.06
1823 H 145.09350343500617 21.133869544783785 145.35398007572397 H 0.0 **** 0.06
1824 H 144.33214018835992 19.754133720375435 144.5245221567306 H 0.0 **** 0.06
1825 H 146.0795036134997 20.044323968011227 144.3493137651179 H 0.0 **** 0.06
1826 C 158.11214146324662 116.30538136636072 4.018691936403229 C 0.0 **** -0.24
1827 H 157.35994901469167 115.53350745919296 3.8506871830066984 H 0.0 **** 0.06
1828 H 157.66605954796637 117.1328796138282 4.569533034583117 H 0.0 **** 0.06
1829 H 158.48308811013365 116.6644786246871 3.0586517754754254 H 0.0 **** 0.06
1830 H 158.9386102186702 115.88746859496202 4.594141059570575 H 0.0 **** 0.06
1831 C 167.87883570489564 4.1383149507779535 42.81100575649339 C 0.0 **** -0.24
1832 H 167.30612960456676 3.426747282361532 43.40390328847752 H 0.0 **** 0.06
1833 H 167.21520959454503 4.639413721108298 42.104712030892074 H 0.0 **** 0.06
1834 H 168.65917984876933 3.6105113766216164 42.26359937696242 H 0.0 **** 0.06
1835 H 168.3338733744922 4.87767596107247 43.46917925138291 H 0.0 **** 0.06
1836 C 164.98890237571567 184.11963718306734 184.43534663674905 C 0.0 **** -0.24
1837 H 164.26865627740142 183.56986961867986 185.04042557535607 H 0.0 **** 0.06
1838 H 164.5356895312628 185.04700330441722 184.08386892951162 H 0.0 **** 0.06
1839 H 165.28361467381495 183.51135820875356 183.57938650381 H 0.0 **** 0.06
1840 H 165.8682601355465 184.3495783728675 185.03742250899097 H 0.0 **** 0.06
1841 C 36.32590941848662 99.92028010120835 145.42823813167138 C 0.0 **** -0.24
1842 H 36.2895614843967 99.39115976380175 144.47587220194345 H 0.0 **** 0.06
1843 H 36.2968741220451 100.99469005057692 145.24891842548635 H 0.0 **** 0.06
1844 H 37.24722121558045 99.66331646103451 145.95223494074526 H 0.0 **** 0.06
1845 H 35.469161595635114 99.62925870461127 146.037677323072 H 0.0 **** 0.06
1846 C 155.27858718036902 133.5578614139357 89.2032010145469 C 0.0 **** -0.24
1847 H 156.3503958565833 133.63972895261293 89.38631642432979 H 0.0 **** 0.06
1848 H 155.07797521530625 132.65337671733312 88.62915778411171 H 0.0 **** 0.06
1849 H 154.93890291601207 134.42830555191819 88.64160242564576 H 0.0 **** 0.06
1850 H 154.75043748197862 133.51063549399436 90.15515214461392 H 0.0 **** 0.06
1851 C 149.8693944287204 79.48176564931302 77.35556248154516 C 0.0 **** -0.24
1852 H 150.02998984006456 80.55494257869715 77.46355684029119 H 0.0 **** 0.06
1853 H 149.93384219001064 79.00571903573154 78.3331086074063 H 0.0 **** 0.06
1854 H 150.6307780183114 79.06556164195882 76.69622295895802 H 0.0 **** 0.06
1855 H 148.8821124487592 79.30383237226249 76.92821668873415 H 0.0 **** 0.06
1856 C 134.13883684138602 71.69645586057896 101.69593758198488 C 0.0 **** -0.24
1857 H 135.17281087258914 71.94267844976667 101.45495522757398 H 0.0 **** 0.06
1858 H 133.47642480371326 72.44602590980523 101.26303875374049 H 0.0 **** 0.06
1859 H 134.01155314415536 71.68059978418835 102.77889918659588 H 0.0 **** 0.06
1860 H 133.89475255492135 70.7155280647025 101.28784704136672 H 0.0 **** 0.06
1861 C 84.75600960036591 127.05071017253601 12.586088007849014 C 0.0 **** -0.24
1862 H 83.90639798539476 126.47555390068624 12.954975179232143 H 0.0 **** 0.06
1863 H 84.39505605995362 127.89942986268852 12.005835672443709 H 0.0 **** 0.06
1864 H 85.3771872084806 126.41600659415639 11.954952456797471 H 0.0 **** 0.06
1865 H 85.34365909704873 127.4108895780497 13.431049693865155 H 0.0 **** 0.06
1866 C 47.22124856823501 163.5635125430096 182.0853862449947 C 0.0 **** -0.24
1867 H 46.66721381367057 162.66100249109417 181.8260149354379 H 0.0 **** 0.06
1868 H 46.64927203239074 164.44033161439393 181.78360901683857 H 0.0 **** 0.06
1869 H 48.18149325615286 163.55940592178973 181.5707537457041 H 0.0 **** 0.06
1870 H 47.38663675700735 163.589454704441 183.1625789487988 H 0.0 **** 0.06
1871 C 27.583930726941887 96.580577671259 84.17572729914966 C 0.0 **** -0.24
1872 H 27.828298111835366 96.17133466342938 83.19566449734435 H 0.0 **** 0.06
1873 H 28.49913676170104 96.71289696623353 84.75271332965244 H 0.0 **** 0.06
1874 H 26.918176645816203 95.8948073106024 84.69959262080637 H 0.0 **** 0.06
1875 H 27.088718685785494 97.54431132418637 84.0532125384042 H 0.0 **** 0.06
1876 C 15.465066394626604 87.92179926500118 118.35813783948106 C 0.0 **** -0.24
1877 H 15.35832213072024 88.89507650474242 117.87957809443952 H 0.0 **** 0.06
1878 H 14.519436741173251 87.38153615257919 118.29810675866213 H 0.0 **** 0.06
1879 H 15.739795183167871 88.05904989338713 119.4033907708145 H 0.0 **** 0.06
1880 H 16.242659024592115 87.35065958673236 117.84998180344661 H 0.0 **** 0.06
1881 C 17.556298781741475 63.45407859584242 159.4178910837195 C 0.0 **** -0.24
1882 H 17.84929088604372 63.93753088624605 160.3497107373647 H 0.0 **** 0.06
1883 H 16.90075971286774 64.11868554900718 158.85530288069106 H 0.0 **** 0.06
1884 H 17.030661279960896 62.5258806276381 159.63975835551048 H 0.0 **** 0.06
1885 H 18.446607813894275 63.23403020672404 158.82746417391596 H 0.0 **** 0.06
1886 C 110.27973473696083 76.81558029870446 107.18323124576229 C 0.0 **** -0.24
1887 H 110.52722625658878 76.0165430446691 106.48378446560857 H 0.0 **** 0.06
1888 H 110.83569486469467 76.67203976307118 108.10990423125396 H 0.0 **** 0.06
1889 H 109.21022585516131 76.79564194328256 107.39265086516197 H 0.0 **** 0.06
1890 H 110.54614610778442 77.77712847189024 106.74460104671856 H 0.0 **** 0.06
1891 C 10.288164269956667 53.06633829352633 109.7001873578874 C 0.0 **** -0.24
1892 H 9.784488679215542 52.73995543531612 110.6097012257198 H 0.0 **** 0.06
1893 H 11.059452043058286 53.79462872126139 109.9543578350331 H 0.0 **** 0.06
1894 H 9.563493066134384 53.523886916752375 109.02751266720749 H 0.0 **** 0.06
1895 H 10.746884134269635 52.20670449778291 109.21096940850113 H 0.0 **** 0.06
1896 C 27.116309864573054 145.09864084389062 161.07437418266682 C 0.0 **** -0.24
1897 H 26.526439994059217 145.92212708998107 160.67328781663187 H 0.0 **** 0.06
1898 H 27.15788916911265 145.17658719037644 162.16096099509923 H 0.0 **** 0.06
1899 H 28.126910977851423 145.14539825789058 160.6689096436953 H 0.0 **** 0.06
1900 H 26.65602582874746 144.15139444350416 160.79533977755025 H 0.0 **** 0.06
1901 C 179.80281309943163 165.38626858625372 44.76802116112371 C 0.0 **** -0.24
1902 H 180.20166025927702 164.3767263130003 44.8653540722277 H 0.0 **** 0.06
1903 H 180.5634878894759 166.10756052992213 45.06793977880973 H 0.0 **** 0.06
1904 H 178.92665650135078 165.49419932930292 45.407244071152164 H 0.0 **** 0.06
1905 H 179.5200949065759 165.56635425607925 43.730311199059145 H 0.0 **** 0.06
1906 C 155.22356491888053 160.58416022731785 34.9112823386473 C 0.0 **** -0.24
1907 H 154.87868419055093 160.39354719840503 35.927784345918525 H 0.0 **** 0.06
1908 H 155.60084507536357 161.6046203447454 34.84174669544156 H 0.0 **** 0.06
1909 H 154.3927912686262 160.455773315834 34.21593612456287 H 0.0 **** 0.06
1910 H 156.01991012975486 159.88361350396406 34.659441192291624 H 0.0 **** 0.06
1911 C 123.371194351614 9.460681481890013 95.280194085598 C 0.0 **** -0.24
1912 H 122.78512839517278 8.779101021682912 95.89784541862588 H 0.0 **** 0.06
1913 H 124.17131295421517 8.907124384127208 94.78876441116478 H 0.0 **** 0.06
1914 H 123.80075172507706 10.241075075065396 95.90786728970897 H 0.0 **** 0.06
1915 H 122.72649301948887 9.913493042070805 94.52733604386162 H 0.0 **** 0.06
1916 C 150.51740808899757 16.410457212136635 102.95795250066418 C 0.0 **** -0.24
1917 H 151.15441837904643 15.543951767286082 102.78148278918347 H 0.0 **** 0.06
1918 H 150.64273961736177 16.74928795789789 103.98741845523683 H 0.0 **** 0.06
1919 H 149.47531918194076 16.136516392943477 102.78957040149821 H 0.0 **** 0.06
1920 H 150.79672255271132 17.212206705992045 102.27422993451414 H 0.0 **** 0.06
1921 C 149.9266088227865 159.77616106443412 185.01238177997277 C 0.0 **** -0.24
1922 H 149.72887291977895 160.68044379079151 184.43675461899272 H 0.0 **** 0.06
1923 H 150.7849095003087 159.94062098939023 185.66439271672263 H 0.0 **** 0.06
1924 H 150.13829981826308 158.9511868980203 184.3317901823742 H 0.0 **** 0.06
1925 H 149.05231165455422 159.53320548419677 185.61700433401307 H 0.0 **** 0.06
1926 C 11.532174472411583 170.30382432047256 117.06665286033932 C 0.0 **** -0.24
1927 H 12.526913999318225 169.88026120862716 116.92190835907432 H 0.0 **** 0.06
1928 H 10.797436696256284 169.68611910496531 116.55095235464744 H 0.0 **** 0.06
1929 H 11.506946195111539 171.31560327713692 116.66131071686205 H 0.0 **** 0.06
1930 H 11.301133445794221 170.33230276960768 118.13100917241745 H 0.0 **** 0.06
1931 C 46.568891652386924 147.45361119803977 97.42208899421547 C 0.0 **** -0.24
1932 H 46.96953455808571 146.74270043902413 98.14433168489728 H 0.0 **** 0.06
1933 H 46.71131588741929 147.06539166427171 96.4131393840978 H 0.0 **** 0.06
1934 H 47.08950445937376 148.40589158845313 97.52191243830555 H 0.0 **** 0.06
1935 H 45.505211704668795 147.60046110041003 97.60897246956114 H 0.0 **** 0.06
1936 C 32.08429959119758 155.52533871061917 156.37178097516397 C 0.0 **** -0.24
1937 H 31.771982698654313 154.60995903765058 155.86968580210717 H 0.0 **** 0.06
1938 H 32.61941609145833 156.16185505538647 155.66608155464536 H 0.0 **** 0.06
1939 H 32.73962626641162 155.2770198463545 157.20634435891498 H 0.0 **** 0.06
1940 H 31.205886724090078 156.05329818169878 156.7431917986758 H 0.0 **** 0.06
1941 C 109.13419298815792 118.49973745624567 175.11717705024154 C 0.0 **** -0.24
1942 H 109.93166409651222 119.21073228669866 174.90269038348322 H 0.0 **** 0.06
1943 H 108.82502137851854 118.6025072040419 176.15755470697866 H 0.0 **** 0.06
1944 H 109.4956327604312 117.48580430197461 174.943130404509 H 0.0 **** 0.06
1945 H 108.28429429104916 118.69851293958862 174.4635908679789 H 0.0 **** 0.06
1946 C 100.03140974331357 119.98427907934935 51.119643126997715 C 0.0 **** -0.24
1947 H 100.62118989281537 120.88887216384795 51.27059050202962 H 0.0 **** 0.06
1948 H 98.9715762221973 120.24076711673438 51.10214489855379 H 0.0 **** 0.06
1949 H 100.22322850173454 119.28679289950874 51.93509635043421 H 0.0 **** 0.06
1950 H 100.31039295303505 119.52272409575086 50.17324643944477 H 0.0 **** 0.06
1951 C 158.9605793789006 53.44215595763501 184.75534844480597 C 0.0 **** -0.24
1952 H 159.97220379359385 53.59768513402082 184.38052971377627 H 0.0 **** 0.06
1953 H 158.9959061739279 52.814164110959695 185.64607547587778 H 0.0 **** 0.06
1954 H 158.3594403032402 52.95399240709554 183.9894480089041 H 0.0 **** 0.06
1955 H 158.51528573504442 54.40460206288722 185.00766854351514 H 0.0 **** 0.06
1956 C 5.83802315212742 173.02818191108864 56.119269034068424 C 0.0 **** -0.24
1957 H 6.649876676723267 172.76611308410378 55.44041326085261 H 0.0 **** 0.06
1958 H 6.252884359051251 173.37472123498057 57.065302340236684 H 0.0 **** 0.06
1959 H 5.214959367763754 172.15038451328257 56.29482998711504 H 0.0 **** 0.06
1960 H 5.23368907423918 173.81911257485788 55.675192049753605 H 0.0 **** 0.06
1961 C 72.87109075819711 154.30317959349838 82.77684570143342 C 0.0 **** -0.24
1962 H 72.27357526071171 155.14587532889334 83.1252384421982 H 0.0 **** 0.06
1963 H 73.88394977250184 154.6426226561806 82.55602579479961 H 0.0 **** 0.06
1964 H 72.42186387209887 153.88866289961646 81.87442923681579 H 0.0 **** 0.06
1965 H 72.9045266591285 153.53689596736444 83.55178042521317 H 0.0 **** 0.06
1966 C 155.91701245712565 1.1071593550041996 116.67643576173624 C 0.0 **** -0.24
1967 H 156.9577526450762 1.225250304767485 116.97885726051378 H 0.0 **** 0.06
1968 H 155.73290119271712 0.06818155442169882 116.40407107624823 H 0.0 **** 0.06
1969 H 155.71278931574838 1.7499581881648965 115.81971996839941 H 0.0 **** 0.06
1970 H 155.2642945418633 1.3870872193878938 117.50381421090513 H 0.0 **** 0.06
1971 C 40.00129291071397 71.14455882648298 40.30935804954402 C 0.0 **** -0.24
1972 H 40.012090340779764 72.14533424716551 39.87767954195192 H 0.0 **** 0.06
1973 H 39.23605152068717 70.54538985256849 39.81668016307697 H 0.0 **** 0.06
1974 H 39.78217905086683 71.21158452829124 41.3751479174764 H 0.0 **** 0.06
1975 H 40.9766989221084 70.67826623993685 40.167591619514496 H 0.0 **** 0.06
1976 C 25.97227270022303 71.91683625548701 153.96566241345704 C 0.0 **** -0.24
1977 H 26.753338201695286 71.5404429947169 153.30563579217934 H 0.0 **** 0.06
1978 H 25.01112685292145 71.49719944657139 153.66825532190873 H 0.0 **** 0.06
1979 H 25.93079682268251 73.00473401129969 153.89530163344222 H 0.0 **** 0.06
1980 H 26.194288471909445 71.62765901279232 154.9927149310943 H 0.0 **** 0.06
1981 C 27.295338317551284 157.46070555759306 149.08509833575312 C 0.0 **** -0.24
1982 H 27.25565976552285 156.5191197345182 148.5380955062977 H 0.0 **** 0.06
1983 H 26.92072128500827 157.30783447946493 150.0983623352605 H 0.0 **** 0.06
1984 H 26.679006083932876 158.20185042763202 148.57780928291567 H 0.0 **** 0.06
1985 H 28.32651844060497 157.8126010263662 149.12776586298344 H 0.0 **** 0.06
1986 C 106.69265689181344 10.63560142124792 118.6256261103582 C 0.0 **** -0.24
1987 H 106.03378926322307 10.237469181236982 117.85431131285371 H 0.0 **** 0.06
1988 H 106.11003019145033 11.229072987612327 119.33043885081103 H 0.0 **** 0.06
1989 H 107.45334734155489 11.265362986872418 118.16266087403729 H 0.0 **** 0.06
1990 H 107.17448557618786 9.812230852561264 119.15310444586088 H 0.0 **** 0.06
1991 C 36.000133211790995 160.15647519781015 87.55655586841131 C 0.0 **** -0.24
1992 H 35.54493445609046 159.24273571152185 87.17569292127861 H 0.0 **** 0.06
1993 H 35.960616239024375 160.92974849103615 86.78807344511613 H 0.0 **** 0.06
1994 H 37.03893817297339 159.96106608048126 87.82260453355242 H 0.0 **** 0.06
1995 H 35.455469768785576 160.49313727255333 88.43882722798709 H 0.0 **** 0.06
1996 C 45.49077713886976 184.11319473794995 108.91930558141371 C 0.0 **** -0.24
1997 H 45.44129581782397 184.03237129604 110.00496967407321 H 0.0 **** 0.06
1998 H 44.84990750305468 183.35420842817604 108.46993572300232 H 0.0 **** 0.06
1999 H 46.51905463264933 183.96228331816283 108.59002376656463 H 0.0 **** 0.06
2000 H 45.15243189390765 185.10240874148803 108.61303693788216 H 0.0 **** 0.06
2001 C 170.91979658381283 80.62926854844186 169.79430062973682 C 0.0 **** -0.24
2002 H 171.67096988383202 80.71821290459184 170.57853906021163 H 0.0 **** 0.06
2003 H 171.28343927384137 79.95597265013117 169.0175947596335 H 0.0 **** 0.06
2004 H 170.7265209967231 81.61177156535098 169.36261120990807 H 0.0 **** 0.06
2005 H 169.9977917614354 80.23097449627396 170.21758341196775 H 0.0 **** 0.06
2006 C 81.73245264139462 18.68103567752639 64.9450481673612 C 0.0 **** -0.24
2007 H 81.30973840221321 17.71725132546809 64.65893142410408 H 0.0 **** 0.06
2008 H 82.81765000011973 18.59624743276973 65.01233888540881 H 0.0 **** 0.06
2009 H 81.33085180297746 18.980091288861317 65.91290500355808 H 0.0 **** 0.06
2010 H 81.4718334340671 19.428332352391962 64.1960510687889 H 0.0 **** 0.06
2011 C 119.433570293927 6.41684835683634 100.02904166580464 C 0.0 **** -0.24
2012 H 119.0407953289905 6.810927921943772 100.96588982083307 H 0.0 **** 0.06
2013 H 119.21746926405251 7.117020044014907 99.22182525902963 H 0.0 **** 0.06
2014 H 118.96405659905867 5.456500460484989 99.81439267695265 H 0.0 **** 0.06
2015 H 120.51178422439193 6.282432076327126 100.11570392653186 H 0.0 **** 0.06
2016 C 88.7456213580728 89.23942015341534 51.850515456716295 C 0.0 **** -0.24
2017 H 88.83004338075533 89.29637707449113 52.93519198204642 H 0.0 **** 0.06
2018 H 88.93586929446256 90.22214769284518 51.41847416047611 H 0.0 **** 0.06
2019 H 87.7415103725291 88.91241132488575 51.58141193509282 H 0.0 **** 0.06
2020 H 89.4752665198027 88.52587298919143 51.466537896076474 H 0.0 **** 0.06
2021 C 34.798622103969564 47.293009376324676 72.53281863427236 C 0.0 **** -0.24
2022 H 35.494274210629555 47.48944619330342 73.34954938727304 H 0.0 **** 0.06
2023 H 35.32162651481613 46.780981404999125 71.7260218385482 H 0.0 **** 0.06
2024 H 34.39584586172509 48.23659958352857 72.16459019324083 H 0.0 **** 0.06
2025 H 33.98313441874882 46.66599784861171 72.89455854810853 H 0.0 **** 0.06
2026 C 92.48282499509149 124.8355374530766 164.46488878930973 C 0.0 **** -0.24
2027 H 91.9270947567524 124.17564812039768 163.79859055463788 H 0.0 **** 0.06
2028 H 91.78417591182092 125.4498808158744 165.0335179067214 H 0.0 **** 0.06
2029 H 93.13731934293752 125.47847004202526 163.8759454900657 H 0.0 **** 0.06
2030 H 93.08264887377563 124.2367763431896 165.15044900976582 H 0.0 **** 0.06
2031 C 43.69086824174741 149.46153701341086 11.152725368012398 C 0.0 **** -0.24
2032 H 43.43872910478382 148.56237724995913 10.590108312690859 H 0.0 **** 0.06
2033 H 42.83945431900054 150.14380213427717 11.146163518619893 H 0.0 **** 0.06
2034 H 44.55091076535814 149.94855815891972 10.692820343702245 H 0.0 **** 0.06
2035 H 43.931940625085076 149.19164034412535 12.180076435229857 H 0.0 **** 0.06
2036 C 30.825960398058385 105.95153088343984 24.733304951479454 C 0.0 **** -0.24
2037 H 31.831404172762376 105.61274042557174 24.985083086281918 H 0.0 **** 0.06
2038 H 30.864781254469477 106.99156724390924 24.40737289465693 H 0.0 **** 0.06
2039 H 30.185074802661745 105.86971634098676 25.61144184775887 H 0.0 **** 0.06
2040 H 30.42370421042844 105.33339604428632 23.93107080361824 H 0.0 **** 0.06
2041 C 134.60972568601716 165.7679725500635 177.15181613537828 C 0.0 **** -0.24
2042 H 134.02984254216028 165.52155816387432 178.0411528815471 H 0.0 **** 0.06
2043 H 135.257533207258 164.92879271088498 176.8963694646679 H 0.0 **** 0.06
2044 H 135.21824817995503 166.6508078711097 177.34768734957507 H 0.0 **** 0.06
2045 H 133.93251658437214 165.97010969882496 176.32187470779388 H 0.0 **** 0.06
2046 C 38.82106161630139 73.21122817089605 147.5020352352941 C 0.0 **** -0.24
2047 H 38.20281202289513 72.56158997968215 148.12122261642463 H 0.0 **** 0.06
2048 H 38.6071563362662 73.02203523609468 146.4491074220874 H 0.0 **** 0.06
2049 H 39.873529145965165 73.00918392101791 147.70119493278307 H 0.0 **** 0.06
2050 H 38.60049315248307 74.25342897407927 147.73619424200294 H 0.0 **** 0.06
2051 C 1.414767192288089 112.62445758731644 86.26284171053472 C 0.0 **** -0.24
2052 H 0.5983882513761642 113.29255618391113 86.53603767971181 H 0.0 **** 0.06
2053 H 2.362676474848321 113.05777077060861 86.58212691804972 H 0.0 **** 0.06
2054 H 1.423943754099902 112.48531301298681 85.18197681065669 H 0.0 **** 0.06
2055 H 1.2733072977915967 111.6598613748443 86.75113120219468 H 0.0 **** 0.06
2056 C 32.81183981097412 58.25504954269968 158.75409846155415 C 0.0 **** -0.24
2057 H 33.73924006854136 58.825362292143836 158.80153768967938 H 0.0 **** 0.06
2058 H 32.67664632400316 57.70381317915073 159.68402132178565 H 0.0 **** 0.06
2059 H 32.85782318763955 57.55532815855733 157.91890871925452 H 0.0 **** 0.06
2060 H 31.97289196673502 58.937110441652536 158.61037008077474 H 0.0 **** 0.06
2061 C 158.72187255235926 119.90341887177743 141.34021003677037 C 0.0 **** -0.24
2062 H 159.28596569057052 119.59322744334025 142.21963062153793 H 0.0 **** 0.06
2063 H 158.95205553879595 119.2377700256672 140.50754815960306 H 0.0 **** 0.06
2064 H 158.99552131044564 120.92541239557175 141.0746163583073 H 0.0 **** 0.06
2065 H 157.65516786755595 119.85885366994347 141.55805034889818 H 0.0 **** 0.06
2066 C 53.66529225229894 133.12738235959648 1.7476783976871388 C 0.0 **** -0.24
2067 H 54.06271197196753 132.1343554108808 1.5367319123585617 H 0.0 **** 0.06
2068 H 53.45311752349542 133.21482708159198 2.8124195045695046 H 0.0 **** 0.06
2069 H 52.748005474635534 133.27952725241295 1.1794819129733014 H 0.0 **** 0.06
2070 H 54.39993279228213 133.88022727625844 1.4603785643860192 H 0.0 **** 0.06
2071 C 38.549197046400025 65.61783345554034 102.81278024170008 C 0.0 **** -0.24
2072 H 37.56706512057099 65.48903594828539 102.35780502544999 H 0.0 **** 0.06
2073 H 38.61535613105195 66.61045948283629 103.25874315512515 H 0.0 **** 0.06
2074 H 39.32013741068553 65.50910334301574 102.04926789354512 H 0.0 **** 0.06
2075 H 38.694573557848685 64.86195981026503 103.58477510842626 H 0.0 **** 0.06
2076 C 37.366900379955325 101.77718802112894 83.45348348448215 C 0.0 **** -0.24
2077 H 36.8607479257696 100.88786990467104 83.829341636079 H 0.0 **** 0.06
2078 H 37.084009484016065 102.6388789831813 84.05825599934923 H 0.0 **** 0.06
2079 H 37.07655728964508 101.94918591746521 82.41703716323826 H 0.0 **** 0.06
2080 H 38.44553475248915 101.63176706388991 83.50987489190646 H 0.0 **** 0.06
2081 C 156.04376013231774 132.52913261196937 57.32957543614134 C 0.0 **** -0.24
2082 H 156.60857036303128 132.84842902740036 58.20590219343525 H 0.0 **** 0.06
2083 H 156.67370358123418 132.60347447893008 56.443570987591 H 0.0 **** 0.06
2084 H 155.1693451052323 133.16885474173478 57.209104167045155 H 0.0 **** 0.06
2085 H 155.72246457665534 131.49612837152597 57.46271734241438 H 0.0 **** 0.06
2086 C 173.77833379342783 44.84156433313092 5.146955384822718 C 0.0 **** -0.24
2087 H 174.47464187697085 44.29589092431263 5.783196636042618 H 0.0 **** 0.06
2088 H 173.98569371534126 44.61459025655216 4.101391429290118 H 0.0 **** 0.06
2089 H 173.8946323711893 45.9127286698604 5.31603821211101 H 0.0 **** 0.06
2090 H 172.75731442780094 44.54492962000353 5.388356878507977 H 0.0 **** 0.06
2091 C 46.64807816050944 178.91542247310554 37.811805341982804 C 0.0 **** -0.24
2092 H 47.193306047752685 179.4292664778234 38.603537780486505 H 0.0 **** 0.06
2093 H 45.74357321564992 179.47514759192254 37.5724165895505 H 0.0 **** 0.06
2094 H 46.37808817833604 177.91405221200057 38.14870502814314 H 0.0 **** 0.06
2095 H 47.27794149834136 178.84316988499052 36.924937194053285 H 0.0 **** 0.06
2096 C 155.1964347109473 52.411261426862325 4.969420543237732 C 0.0 **** -0.24
2097 H 156.11195826781508 52.94035383418691 5.233610247832075 H 0.0 **** 0.06
2098 H 155.3066472471086 51.353281552451676 5.208075426705307 H 0.0 **** 0.06
2099 H 155.00564576484342 52.52579295474993 3.9029415511506045 H 0.0 **** 0.06
2100 H 154.36174442155468 52.82677916445709 5.534948191110914 H 0.0 **** 0.06
2101 C 145.19182747172596 67.71710145700767 84.11875138503629 C 0.0 **** -0.24
2102 H 146.21000541331722 67.88414786237527 83.7682139045195 H 0.0 **** 0.06
2103 H 144.98963687822388 68.36739631256545 84.96995049978968 H 0.0 **** 0.06
2104 H 145.07835345199393 66.67537498310348 84.42151037161373 H 0.0 **** 0.06
2105 H 144.4902094075298 67.94043684893555 83.31502023681054 H 0.0 **** 0.06
2106 C 33.33249786580973 146.75340244006253 70.91776961533179 C 0.0 **** -0.24
2107 H 34.14283891864483 147.07854732952376 71.56911169557873 H 0.0 **** 0.06
2108 H 32.683630454786794 147.6000725942987 70.69306068634602 H 0.0 **** 0.06
2109 H 32.75399417761713 145.9762110495928 71.41794199303266 H 0.0 **** 0.06
2110 H 33.747159554163204 146.35695688504845 69.99123199786891 H 0.0 **** 0.06
2111 C 56.487246647893926 47.79183817818213 137.41274295220296 C 0.0 **** -0.24
2112 H 57.280235551545445 48.5283196942524 137.54285805503173 H 0.0 **** 0.06
2113 H 56.09223670483598 47.50865026005758 138.38888952703792 H 0.0 **** 0.06
2114 H 56.88841215341924 46.91069104175429 136.9126626507894 H 0.0 **** 0.06
2115 H 55.68900590525459 48.22163842472581 136.80840380539468 H 0.0 **** 0.06
2116 C 31.460017080622976 46.30257597787411 141.09902582980487 C 0.0 **** -0.24
2117 H 30.72469755655308 45.80453044337921 141.73112092622495 H 0.0 **** 0.06
2118 H 31.751991258673698 47.24755156585191 141.55832922356927 H 0.0 **** 0.06
2119 H 31.0256318175922 46.49429373337853 140.11846676475744 H 0.0 **** 0.06
2120 H 32.336841173448065 45.66541812910826 140.99041316118615 H 0.0 **** 0.06
2121 C 153.00206252695298 56.662540449946476 120.8722237155581 C 0.0 **** -0.24
2122 H 153.63228634009369 56.65011324837624 119.98227601826733 H 0.0 **** 0.06
2123 H 151.98781602412694 56.36805986739145 120.60258769862259 H 0.0 **** 0.06
2124 H 152.98987008061476 57.667380267878755 121.29391867320078 H 0.0 **** 0.06
2125 H 153.40023551681998 55.96421419511566 121.60787380723878 H 0.0 **** 0.06
2126 C 138.9602044939473 122.55713123797143 50.71278921536323 C 0.0 **** -0.24
2127 H 139.06929346399278 121.56901594743117 51.15983634147388 H 0.0 **** 0.06
2128 H 139.82709728248983 122.77057666084399 50.086791349196716 H 0.0 **** 0.06
2129 H 138.8874445316199 123.30715427921676 51.50025145848251 H 0.0 **** 0.06
2130 H 138.05666710027168 122.5820601778321 50.102598163424545 H 0.0 **** 0.06
2131 C 164.14395472864936 112.43609100043365 181.65746294109005 C 0.0 **** -0.24
2132 H 163.10361426405404 112.21768073657522 181.41573779552192 H 0.0 **** 0.06
2133 H 164.22036772628257 112.7227533664648 182.7063080700903 H 0.0 **** 0.06
2134 H 164.49880624533648 113.25349042689685 181.0297871168218 H 0.0 **** 0.06
2135 H 164.7527153579609 111.54914868956767 181.47753452646188 H 0.0 **** 0.06
2136 C 2.848128167442546 18.108427952844153 57.29249903482118 C 0.0 **** -0.24
2137 H 2.6111288661359566 18.795057431275666 58.10576754939241 H 0.0 **** 0.06
2138 H 3.6563591911958966 17.444631433335246 57.60091949135416 H 0.0 **** 0.06
2139 H 3.157194761342801 18.67692448372705 56.415511069613245 H 0.0 **** 0.06
2140 H 1.965190539076282 17.51662646749992 57.04869883411811 H 0.0 **** 0.06
2141 C 106.36961350196884 51.839646207312285 73.41626691515616 C 0.0 **** -0.24
2142 H 105.78063802300954 51.8607308676568 74.33380258903856 H 0.0 **** 0.06
2143 H 105.98563380299032 52.587401047338346 72.72214181096874 H 0.0 **** 0.06
2144 H 106.29812275800299 50.85142829744916 72.96148585850321 H 0.0 **** 0.06
2145 H 107.41138874182883 52.05882722250436 73.64854772657824 H 0.0 **** 0.06
2146 C 177.17992851172323 118.18248539367964 157.19151993248693 C 0.0 **** -0.24
2147 H 177.59128204605827 118.51840713707246 158.14358937583125 H 0.0 **** 0.06
2148 H 176.69927139167578 117.21359711614592 157.3246686728325 H 0.0 **** 0.06
2149 H 177.98345660713028 118.0924472014624 156.46098172612852 H 0.0 **** 0.06
2150 H 176.446746220587 118.90686938856008 156.83694706708206 H 0.0 **** 0.06
2151 C 19.02410099920087 111.34664430616535 172.0567830988991 C 0.0 **** -0.24
2152 H 19.19504179285883 110.35960332333387 172.48677113696672 H 0.0 **** 0.06
2153 H 18.29949408730897 111.88741678960743 172.66612727473438 H 0.0 **** 0.06
2154 H 18.63863381060611 111.23853969715599 171.0430144859072 H 0.0 **** 0.06
2155 H 19.963794169503217 111.89827214812375 172.03160713542533 H 0.0 **** 0.06
2156 C 79.12010256929445 30.75119483665479 42.43552535332398 C 0.0 **** -0.24
2157 H 78.78059241870575 31.61687739116951 41.86757648735389 H 0.0 **** 0.06
2158 H 78.7360246970865 30.811337209161266 43.45398028766533 H 0.0 **** 0.06
2159 H 80.20915521707279 30.736853705629287 42.457818667259886 H 0.0 **** 0.06
2160 H 78.75463794431266 29.839711040659253 41.96272597101694 H 0.0 **** 0.06
2161 C 121.8674103586368 176.67434962183702 157.2420023420463 C 0.0 **** -0.24
2162 H 121.6096011581467 177.45989438220923 156.53178532931935 H 0.0 **** 0.06
2163 H 122.83472258102263 176.24740515170453 156.9753286247996 H 0.0 **** 0.06
2164 H 121.10621580034909 175.89564397626623 157.21342457984053 H 0.0 **** 0.06
2165 H 121.92078833212675 177.09514727096987 158.24583473902737 H 0.0 **** 0.06
2166 C 124.59727496010824 151.88138813971182 4.825532829555726 C 0.0 **** -0.24
2167 H 125.56907722716208 151.9641672496975 4.339862867717585 H 0.0 **** 0.06
2168 H 123.86266066035698 151.51385364588555 4.109126110844848 H 0.0 **** 0.06
2169 H 124.28915513377025 152.86150544042485 5.191298661180468 H 0.0 **** 0.06
2170 H 124.66720502590358 151.18729322500184 5.66368521699836 H 0.0 **** 0.06
2171 C 7.653977971018065 48.19680952437365 32.80221604134877 C 0.0 **** -0.24
2172 H 6.74354291903407 48.74454225578762 33.0447427922345 H 0.0 **** 0.06
2173 H 7.430845927970665 47.434566423361716 32.054613908311524 H 0.0 **** 0.06
2174 H 8.04129458944584 47.719705909128194 33.70301200308876 H 0.0 **** 0.06
2175 H 8.399442101096753 48.887304285205275 32.4068546917475 H 0.0 **** 0.06
2176 C 140.1822318093645 82.78774025027245 181.713891908211 C 0.0 **** -0.24
2177 H 140.09617454740714 81.73631765134512 181.43890820057152 H 0.0 **** 0.06
2178 H 139.72653725586264 82.94639270163898 182.691058335404 H 0.0 **** 0.06
2179 H 139.67145536447714 83.39939740837498 180.97035555966264 H 0.0 **** 0.06
2180 H 141.23534276315843 83.06733601572631 181.75341287576475 H 0.0 **** 0.06
2181 C 159.2055459229917 67.72275863021795 54.57075053044552 C 0.0 **** -0.24
2182 H 159.2212534661678 68.80579807808718 54.69581934943977 H 0.0 **** 0.06
2183 H 160.19803509326388 67.37577324404069 54.282697133547074 H 0.0 **** 0.06
2184 H 158.4872358305797 67.45699318051005 53.79543789000785 H 0.0 **** 0.06
2185 H 158.91584888141983 67.25274561750857 55.51074721305936 H 0.0 **** 0.06
2186 C 77.01741591867983 83.56559397516527 93.0573809327431 C 0.0 **** -0.24
2187 H 77.84549748946806 83.85412633341319 92.40922171020158 H 0.0 **** 0.06
2188 H 76.8135219617213 84.36844536890392 93.76593457172665 H 0.0 **** 0.06
2189 H 77.28226662452977 82.65816820638373 93.60189538568044 H 0.0 **** 0.06
2190 H 76.12998473208796 83.38010511010238 92.45220068254208 H 0.0 **** 0.06
2191 C 9.761047549963052 58.71166156742299 168.02572902346725 C 0.0 **** -0.24
2192 H 9.851088996381833 59.73801661098571 168.38222199393584 H 0.0 **** 0.06
2193 H 9.503903205819029 58.71693545398034 166.96576139439793 H 0.0 **** 0.06
2194 H 8.97883442869346 58.20017425455302 168.58625173847724 H 0.0 **** 0.06
2195 H 10.70879698505479 58.19274651234559 168.16766043597738 H 0.0 **** 0.06
2196 C 19.739519482351476 170.71489767921383 175.49311479528873 C 0.0 **** -0.24
2197 H 19.93896921110216 171.1441728106264 174.51127314324324 H 0.0 **** 0.06
2198 H 18.662130797895713 170.67897983538023 175.6612277010987 H 0.0 **** 0.06
2199 H 20.205850249984557 171.3320146079892 176.26115950543448 H 0.0 **** 0.06
2200 H 20.148656279802296 169.7060600001298 175.53833601759695 H 0.0 **** 0.06
2201 C 110.26045359960669 148.59455324782022 50.76236416094923 C 0.0 **** -0.24
2202 H 110.28791042978325 148.96503207522832 49.738114240624384 H 0.0 **** 0.06
2203 H 109.54121150234239 149.17671361278127 51.339124507411555 H 0.0 **** 0.06
2204 H 111.24904457663287 148.6918643638243 51.21092272703288 H 0.0 **** 0.06
2205 H 109.96310452042594 147.5462825421635 50.76299335389808 H 0.0 **** 0.06
2206 C 49.755787284868745 52.16509344139939 17.015174060881513 C 0.0 **** -0.24
2207 H 49.6422514146646 51.79808446656449 15.995278294801992 H 0.0 **** 0.06
2208 H 50.11765731637669 51.35827257799295 17.653579552504063 H 0.0 **** 0.06
2209 H 48.7919335463836 52.51589174885041 17.38412511983212 H 0.0 **** 0.06
2210 H 50.47019599692038 52.98757970818198 17.028397904210543 H 0.0 **** 0.06
2211 C 63.70371997112882 95.6089089967269 15.005561433994899 C 0.0 **** -0.24
2212 H 63.93854376372482 95.96317423091374 16.008782381091407 H 0.0 **** 0.06
2213 H 63.987299717687094 94.55912816759023 14.916039593649941 H 0.0 **** 0.06
2214 H 64.25691707142174 96.19831677273321 14.273140210441198 H 0.0 **** 0.06
2215 H 62.63400401830749 95.71398947091335 14.823656938757608 H 0.0 **** 0.06
2216 C 25.883238321960476 102.57555138713711 126.40993120014373 C 0.0 **** -0.24
2217 H 26.3662515335061 103.16108713440484 127.1917025670066 H 0.0 **** 0.06
2218 H 25.184877001017014 103.20891080788131 125.8616742295418 H 0.0 **** 0.06
2219 H 25.343737631325297 101.74302783722815 126.86073369460429 H 0.0 **** 0.06
2220 H 26.638795605312623 102.19075257750713 125.72545810750297 H 0.0 **** 0.06
2221 C 60.96989670842383 33.54137273676025 181.8775831046042 C 0.0 **** -0.24
2222 H 61.18839959162736 33.840561581920554 180.85291590697358 H 0.0 **** 0.06
2223 H 61.4165385354233 34.25733886881329 182.56790908035933 H 0.0 **** 0.06
2224 H 61.38341491602863 32.55024200035115 182.06365275559503 H 0.0 **** 0.06
2225 H 59.890421132724725 33.51829326431431 182.02652329296572 H 0.0 **** 0.06
2226 C 71.42589948528601 171.90330398887846 167.55236816188875 C 0.0 **** -0.24
2227 H 70.99396661412175 171.30529020831813 166.75032772630743 H 0.0 **** 0.06
2228 H 71.60501129363374 172.91718504289116 167.19315018397978 H 0.0 **** 0.06
2229 H 72.36824289656059 171.4583311667269 167.87090768943068 H 0.0 **** 0.06
2230 H 70.7350726878859 171.93277390539527 168.39467998705393 H 0.0 **** 0.06
2231 C 73.99496470519941 104.01382078211196 65.01847634681005 C 0.0 **** -0.24
2232 H 74.32089976953978 103.7995108311087 64.00034179861579 H 0.0 **** 0.06
2233 H 74.33002716311839 103.21645338769275 65.68187799916547 H 0.0 **** 0.06
2234 H 72.90717771982152 104.07666942256736 65.04569550968634 H 0.0 **** 0.06
2235 H 74.42190788877296 104.9615530051201 65.34404734435283 H 0.0 **** 0.06
2236 C 56.80428139701711 166.3315414150985 127.8788145991378 C 0.0 **** -0.24
2237 H 56.256105685192594 166.67470269820836 127.0014377789592 H 0.0 **** 0.06
2238 H 56.39526302262452 166.80544845002186 128.77115783821318 H 0.0 **** 0.06
2239 H 57.856614746396005 166.5973438635392 127.77597999167142 H 0.0 **** 0.06
2240 H 56.70956567328159 165.2488425221057 127.96534445916376 H 0.0 **** 0.06
2241 C 9.14292124618811 110.26377790337504 100.39146347940287 C 0.0 **** -0.24
2242 H 9.466127308029627 110.3499016754425 101.42853670890675 H 0.0 **** 0.06
2243 H 8.15467694333995 109.80571145444254 100.35569085983157 H 0.0 **** 0.06
2244 H 9.851494852160158 109.64355304403689 99.84090741901478 H 0.0 **** 0.06
2245 H 9.101002550555876 111.25453431979547 99.9395377145883 H 0.0 **** 0.06
2246 C 139.11025039061758 106.19127113824091 154.76923569612438 C 0.0 **** -0.24
2247 H 138.58168525421667 105.24815488225339 154.62899305724406 H 0.0 **** 0.06
2248 H 139.71538640877895 106.40217076153489 153.88680148175462 H 0.0 **** 0.06
2249 H 139.75505195178908 106.12028715216634 155.64413599792297 H 0.0 **** 0.06
2250 H 138.38668937979605 106.99430805632103 154.91496686372145 H 0.0 **** 0.06
2251 C 105.3672916691026 92.09793912943617 10.138657260753462 C 0.0 **** -0.24
2252 H 105.13985202742964 92.35863781346693 9.105621570203368 H 0.0 **** 0.06
2253 H 104.84145250323485 91.1810335289385 10.405671614208927 H 0.0 **** 0.06
2254 H 105.0477901989114 92.90569002763779 10.796386412229225 H 0.0 **** 0.06
2255 H 106.44121721332095 91.9443780613173 10.24616212465645 H 0.0 **** 0.06
2256 C 68.65478738933353 40.2217704400295 151.70511374541758 C 0.0 **** -0.24
2257 H 69.62872078709506 40.215213834535874 152.19607825408167 H 0.0 **** 0.06
2258 H 68.7714549447295 39.919542009849394 150.66453793748028 H 0.0 **** 0.06
2259 H 68.23377110842102 41.2259669961465 151.74755093902596 H 0.0 **** 0.06
2260 H 67.98787492643115 39.52605380767173 152.21361692082618 H 0.0 **** 0.06
2261 C 165.20774637496365 81.77522132717525 65.57776672686344 C 0.0 **** -0.24
2262 H 166.17406350557496 81.27869304869287 65.49356923530435 H 0.0 **** 0.06
2263 H 164.41204159842394 81.03187920159348 65.53205295956671 H 0.0 **** 0.06
2264 H 165.09104237624086 82.48384677683528 64.75772007235842 H 0.0 **** 0.06
2265 H 165.15430892852854 82.30733358114317 66.52756320610123 H 0.0 **** 0.06
2266 C 39.59948082257199 177.13345940446968 167.57742099500328 C 0.0 **** -0.24
2267 H 39.93165773584312 176.50915339950552 168.40643960493858 H 0.0 **** 0.06
2268 H 38.73288807170883 176.67431674858898 167.10195135023133 H 0.0 **** 0.06
2269 H 40.4052590658566 177.2287831691166 166.84983721501624 H 0.0 **** 0.06
2270 H 39.32857623545564 178.12123640805038 167.95063764261096 H 0.0 **** 0.06
2271 C 178.56711896794843 83.35311911212251 124.29390119445524 C 0.0 **** -0.24
2272 H 177.8460920330143 83.2054521762704 125.09811883105051 H 0.0 **** 0.06
2273 H 178.41236620902714 82.59456616214074 123.52519031095092 H 0.0 **** 0.06
2274 H 179.57783453492445 83.26669322726106 124.6918458568902 H 0.0 **** 0.06
2275 H 178.43012096371848 84.34358741304871 123.86053017250215 H 0.0 **** 0.06
2276 C 30.106697836073522 49.113916511614974 161.15133111816496 C 0.0 **** -0.24
2277 H 30.774434643130974 48.98435298186337 160.29951587112072 H 0.0 **** 0.06
2278 H 30.378558977479116 50.02128546966054 161.6914500662501 H 0.0 **** 0.06
2279 H 30.19525899749246 48.25429650822366 161.81620385188953 H 0.0 **** 0.06
2280 H 29.07886678563557 49.19486449634627 160.79853074569903 H 0.0 **** 0.06
2281 C 92.72459788506292 119.6715848743212 62.67267495072609 C 0.0 **** -0.24
2282 H 93.26089657870376 120.55100923841856 62.31770053577155 H 0.0 **** 0.06
2283 H 92.7550661936914 118.89497583095364 61.90876629983876 H 0.0 **** 0.06
2284 H 91.68749970300054 119.9371667358996 62.87900966200557 H 0.0 **** 0.06
2285 H 93.19321799931534 119.30327440187567 63.58496872669477 H 0.0 **** 0.06
2286 C 107.56287570318112 154.8315257998186 88.37117940540845 C 0.0 **** -0.24
2287 H 107.83716715912855 155.84774955522516 88.6539210438476 H 0.0 **** 0.06
2288 H 108.32936407050353 154.1384672680708 88.72052860245854 H 0.0 **** 0.06
2289 H 107.48074005597822 154.76565801820678 87.28657693544726 H 0.0 **** 0.06
2290 H 106.60622008280781 154.57408297777008 88.82511394507672 H 0.0 **** 0.06
2291 C 90.69772563939905 177.9388386433888 129.76019783445173 C 0.0 **** -0.24
2292 H 89.70310809550763 178.16272550151268 130.14766785196076 H 0.0 **** 0.06
2293 H 91.246439332908 178.86972859645982 129.6125205701287 H 0.0 **** 0.06
2294 H 90.60649287401573 177.41577649348625 128.808540375112 H 0.0 **** 0.06
2295 H 91.23207419121299 177.30956513393375 130.4715450243079 H 0.0 **** 0.06
2296 C 66.41554178380426 181.6072518055584 145.40939927686082 C 0.0 **** -0.24
2297 H 65.7308721179596 181.16275372321184 146.13235729041062 H 0.0 **** 0.06
2298 H 66.5516761143313 180.92534546377786 144.57069937835672 H 0.0 **** 0.06
2299 H 67.37782317922074 181.79172198162482 145.88776697214757 H 0.0 **** 0.06
2300 H 66.00154516323376 182.54919974739855 145.04921009949635 H 0.0 **** 0.06
2301 C 66.84296941092249 98.7184579709184 99.74816882831067 C 0.0 **** -0.24
2302 H 66.43686325114194 98.02667545088315 100.48644391653556 H 0.0 **** 0.06
2303 H 66.86472131438046 98.23412512417309 98.77122515270827 H 0.0 **** 0.06
2304 H 67.8549090997466 99.00449695630192 100.03553990577308 H 0.0 **** 0.06
2305 H 66.21353932609095 99.6076580002977 99.69855563053505 H 0.0 **** 0.06
2306 C 59.92949369192604 83.238079487209 185.14974539723528 C 0.0 **** -0.24
2307 H 60.619704326670444 82.74501275585317 184.465604455761 H 0.0 **** 0.06
2308 H 59.390838884702674 82.48735566497095 185.72713441701814 H 0.0 **** 0.06
2309 H 59.220183063965635 83.83705271223744 184.5792185754131 H 0.0 **** 0.06
2310 H 60.48970834354111 83.8849120061073 185.82608158466053 H 0.0 **** 0.06
2311 C 5.486794258472912 32.71266393186073 34.453013688388296 C 0.0 **** -0.24
2312 H 5.299104931072975 33.09339284986552 35.457247518016146 H 0.0 **** 0.06
2313 H 5.650268215802271 33.54875156329682 33.77241900530532 H 0.0 **** 0.06
2314 H 4.627331389172014 32.13269353241999 34.11814617360233 H 0.0 **** 0.06
2315 H 6.372478596372957 32.076628102326 34.4663203183724 H 0.0 **** 0.06
2316 C 183.91029568213648 118.7602180882915 89.99373981624963 C 0.0 **** -0.24
2317 H 182.83037698855676 118.8827522296808 90.06867533410868 H 0.0 **** 0.06
2318 H 184.2785614487179 118.23851055598102 90.87691643031734 H 0.0 **** 0.06
2319 H 184.38385997152338 119.73976159338694 89.92603638316298 H 0.0 **** 0.06
2320 H 184.1482857550122 118.17867736593554 89.10254370969587 H 0.0 **** 0.06
2321 C 84.64919905823511 34.08470528764913 8.502632197714263 C 0.0 **** -0.24
2322 H 83.86549191771812 33.362002002764186 8.279049096362144 H 0.0 **** 0.06
2323 H 85.57598488801206 33.778005151391596 8.016219356344436 H 0.0 **** 0.06
2324 H 84.80291268277934 34.13184340520874 9.580922276509227 H 0.0 **** 0.06
2325 H 84.35325695121675 35.06737517221764 8.134674940495415 H 0.0 **** 0.06
2326 C 60.56243138416029 43.96087188028301 36.75749441647062 C 0.0 **** -0.24
2327 H 61.41167398095743 44.568251696231115 36.44434247843628 H 0.0 **** 0.06
2328 H 59.63617682610011 44.443693809210004 36.44707723739032 H 0.0 **** 0.06
2329 H 60.572322993757496 43.85572253097146 37.842528582892896 H 0.0 **** 0.06
2330 H 60.631476012616076 42.97507191365865 36.29688868079569 H 0.0 **** 0.06
2331 C 43.72128764130849 8.682848718484308 181.28914286080004 C 0.0 **** -0.24
2332 H 43.37128505729282 7.740231684392171 181.7100225147189 H 0.0 **** 0.06
2333 H 44.81020984125627 8.67347985412917 181.23466307100756 H 0.0 **** 0.06
2334 H 43.39581611457908 9.50775843323865 181.92222467915332 H 0.0 **** 0.06
2335 H 43.30810564678046 8.808181912822505 180.28828593095767 H 0.0 **** 0.06
2336 C 44.564588034438316 135.29880325679636 177.9691776911846 C 0.0 **** -0.24
2337 H 44.42475861573348 136.19909323429937 177.37099289675626 H 0.0 **** 0.06
2338 H 45.622905127264346 135.17512158491547 178.1971516339511 H 0.0 **** 0.06
2339 H 44.209192930506674 134.43223746218632 177.41002435690794 H 0.0 **** 0.06
2340 H 44.000312975535394 135.38776648240997 178.89727173553797 H 0.0 **** 0.06
2341 C 11.765885880110709 9.855557369158703 184.19381725139257 C 0.0 **** -0.24
2342 H 12.174981659049692 10.352359801250742 185.07413445317786 H 0.0 **** 0.06
2343 H 12.436977897952723 10.00691197285505 183.3474268633368 H 0.0 **** 0.06
2344 H 10.787061237678365 10.27550090045429 183.96192047223218 H 0.0 **** 0.06
2345 H 11.666298139522873 8.788464796119342 184.39269934486282 H 0.0 **** 0.06
2346 C 42.9430338938991 47.89511922126907 156.76541954874256 C 0.0 **** -0.24
2347 H 43.625756554176746 48.59411140276454 156.28190318694985 H 0.0 **** 0.06
2348 H 42.39764210377331 48.40938451397757 157.5571918550611 H 0.0 **** 0.06
2349 H 43.51131857946018 47.06865217478989 157.19104858565785 H 0.0 **** 0.06
2350 H 42.23728702378628 47.51001778977124 156.02886430599875 H 0.0 **** 0.06
2351 C 161.0670479046322 180.63242283430586 123.14163042538 C 0.0 **** -0.24
2352 H 161.3516811221742 181.67946057417268 123.24807420934552 H 0.0 **** 0.06
2353 H 161.09618300320753 180.35504969248856 122.08750203142752 H 0.0 **** 0.06
2354 H 160.0587393420035 180.48913592561217 123.52804216010024 H 0.0 **** 0.06
2355 H 161.7639501462752 180.0086756377836 123.70167780790486 H 0.0 **** 0.06
2356 C 76.56741020138759 107.60903871612318 22.7172287478017 C 0.0 **** -0.24
2357 H 77.26170649693397 106.97819545278266 23.272998316772544 H 0.0 **** 0.06
2358 H 76.41210401772705 108.5417621526628 23.260189485953703 H 0.0 **** 0.06
2359 H 75.61537765841496 107.09070636871068 22.60535397703299 H 0.0 **** 0.06
2360 H 76.98200597458727 107.82520291425969 21.732719356323514 H 0.0 **** 0.06
2361 C 58.48385141787031 53.16455596966452 67.9030668708907 C 0.0 **** -0.24
2362 H 58.402352176826895 52.16043975528976 68.3196816495433 H 0.0 **** 0.06
2363 H 57.610433665082994 53.749523710175936 68.19203148097259 H 0.0 **** 0.06
2364 H 58.53758916057768 53.103569942529774 66.81607408150978 H 0.0 **** 0.06
2365 H 59.38577988803385 53.64353029972136 68.28417576595908 H 0.0 **** 0.06
2366 C 93.86817354096068 18.777309945262203 10.72646265694749 C 0.0 **** -0.24
2367 H 93.03644027060041 19.023997862862828 11.385911052813583 H 0.0 **** 0.06
2368 H 94.69998986755503 18.39406067777506 11.31935136126387 H 0.0 **** 0.06
2369 H 94.18598875252609 19.671399758983767 10.191483010088348 H 0.0 **** 0.06
2370 H 93.55150308961733 18.017883188219947 10.01107730201997 H 0.0 **** 0.06
2371 C 180.37073223726748 47.45955737451669 68.12623206198174 C 0.0 **** -0.24
2372 H 180.02868514277884 46.74271311088546 67.37878742490295 H 0.0 **** 0.06
2373 H 180.99810218219895 48.21199777073497 67.64721348911857 H 0.0 **** 0.06
2374 H 180.94648819082087 46.9392299213597 68.89104038016404 H 0.0 **** 0.06
2375 H 179.50857245543293 47.943435745390275 68.58612511172151 H 0.0 **** 0.06
2376 C 38.197457074415524 170.7329930107514 152.59873545619388 C 0.0 **** -0.24
2377 H 38.299279486919374 171.50703307989505 151.83779949209767 H 0.0 **** 0.06
2378 H 39.171800664630126 170.2823665194091 152.79010086496328 H 0.0 **** 0.06
2379 H 37.50541348758895 169.9681428122388 152.24677352152037 H 0.0 **** 0.06
2380 H 37.81413095288349 171.17560081285956 153.5176232398092 H 0.0 **** 0.06
2381 C 73.42318202492085 146.60012216598827 17.495693188719116 C 0.0 **** -0.24
2382 H 73.32438263424541 147.425168969113 16.79118855150267 H 0.0 **** 0.06
2383 H 74.47582964888159 146.34181985723936 17.60804639602435 H 0.0 **** 0.06
2384 H 72.87511602837043 145.73454250912536 17.121118858358983 H 0.0 **** 0.06
2385 H 73.01620050978191 146.89686606522403 18.46198478587212 H 0.0 **** 0.06
2386 C 26.095819172360223 5.5618727099992356 3.807870639551197 C 0.0 **** -0.24
2387 H 26.1485124139771 4.834849517687687 4.6183359784822215 H 0.0 **** 0.06
2388 H 25.34037076527335 5.248827326600988 3.086902079136614 H 0.0 **** 0.06
2389 H 27.065681802840004 5.626397359921988 3.3147069664833495 H 0.0 **** 0.06
2390 H 25.82905881288923 6.537633194260579 4.212891295382228 H 0.0 **** 0.06
2391 C 64.22350922909172 146.8534436647704 93.04777323135015 C 0.0 **** -0.24
2392 H 64.75545576819647 147.78299987472178 93.25401952055041 H 0.0 **** 0.06
2393 H 63.29154153567238 146.8358162224477 93.61222414997083 H 0.0 **** 0.06
2394 H 64.84420193284376 146.0069206158749 93.34360712048938 H 0.0 **** 0.06
2395 H 64.00566823147784 146.78966933702517 91.98181380884752 H 0.0 **** 0.06
2396 C 130.99536686902496 44.26998395530103 46.32241402112692 C 0.0 **** -0.24
2397 H 131.9114910405503 43.81546638194078 46.70171559183537 H 0.0 **** 0.06
2398 H 130.7844522302383 45.18106535698507 46.8826140431743 H 0.0 **** 0.06
2399 H 130.1674501730651 43.57096207382392 46.43994576910029 H 0.0 **** 0.06
2400 H 131.12004512862876 44.51181470963911 45.26755358115099 H 0.0 **** 0.06
2401 C 2.679765516794795 74.24744145787872 81.38977878589833 C 0.0 **** -0.24
2402 H 2.7247455931510416 74.87935837206078 82.27727931643369 H 0.0 **** 0.06
2403 H 2.9085695270260032 74.8449320634146 80.50713952111136 H 0.0 **** 0.06
2404 H 1.6790382844937781 73.8259023531761 81.29473061393293 H 0.0 **** 0.06
2405 H 3.4067662864570636 73.44061136578239 81.48135084161669 H 0.0 **** 0.06
2406 C 38.19994573104975 165.6469432340782 17.232245709979274 C 0.0 **** -0.24
2407 H 38.8134369274633 164.75279162696154 17.337681905302958 H 0.0 **** 0.06
2408 H 37.26210683619426 165.38883164690372 16.740063846634108 H 0.0 **** 0.06
2409 H 38.734255973623206 166.3843672573646 16.63229507411654 H 0.0 **** 0.06
2410 H 37.991931858028394 166.06270125795461 18.21777645022511 H 0.0 **** 0.06
2411 C 88.05759634702925 6.599163363681477 141.4727274805153 C 0.0 **** -0.24
2412 H 88.02259730958941 5.589690817695235 141.88229750769057 H 0.0 **** 0.06
2413 H 89.04424014139975 7.028477604417169 141.64908985799377 H 0.0 **** 0.06
2414 H 87.30016764450572 7.2141162479735925 141.95899600649835 H 0.0 **** 0.06
2415 H 87.86330926220539 6.562976951422868 140.40028612441034 H 0.0 **** 0.06
2416 C 116.91047039068877 184.47187526043496 8.62466704058258 C 0.0 **** -0.24
2417 H 116.47960534382116 183.62169158306028 9.153857364715122 H 0.0 **** 0.06
2418 H 116.93164136773339 185.33850941453 9.286043949903956 H 0.0 **** 0.06
2419 H 116.30458426171555 184.69871399915456 7.747222137761696 H 0.0 **** 0.06
2420 H 117.92551721882012 184.22791397008837 8.312058378878532 H 0.0 **** 0.06
2421 C 177.95596226423433 18.88314842014566 77.92160129051807 C 0.0 **** -0.24
2422 H 177.3998296467841 18.394766554775714 77.1208128962829 H 0.0 **** 0.06
2423 H 179.02207622532615 18.849276545043125 77.69671223635005 H 0.0 **** 0.06
2424 H 177.76680968957064 18.36558379807076 78.86234277581003 H 0.0 **** 0.06
2425 H 177.63416775947488 19.92097020676283 78.00682214401104 H 0.0 **** 0.06
2426 C 75.33659919230786 144.32707710606908 176.52568767588195 C 0.0 **** -0.24
2427 H 74.84705424476033 144.89121829903135 175.7324709354832 H 0.0 **** 0.06
2428 H 76.30464236954617 144.77818031503566 176.74706225055814 H 0.0 **** 0.06
2429 H 75.48239880145718 143.2964803258592 176.20254048553232 H 0.0 **** 0.06
2430 H 74.71517389502651 144.34329472847872 177.42066808630778 H 0.0 **** 0.06
2431 C 55.42475604901108 55.62794228969457 176.23694100682445 C 0.0 **** -0.24
2432 H 54.43358344210776 55.5025550137466 176.67107372945497 H 0.0 **** 0.06
2433 H 55.720999536387296 54.70796548306426 175.73355862724284 H 0.0 **** 0.06
2434 H 56.141029664685675 55.856684825812266 177.02760109972274 H 0.0 **** 0.06
2435 H 55.40489878765365 56.44691752597383 175.51803029544763 H 0.0 **** 0.06
2436 C 86.59235136326173 92.4109299837075 67.46921610764348 C 0.0 **** -0.24
2437 H 85.61744764346777 91.92981686045108 67.53744531642457 H 0.0 **** 0.06
2438 H 86.86364028957469 92.5352911418242 66.4207148001329 H 0.0 **** 0.06
2439 H 87.33960383562878 91.79155038444695 67.9667561099541 H 0.0 **** 0.06
2440 H 86.54996283479274 93.3875693788848 67.9523745613859 H 0.0 **** 0.06
2441 C 184.92801483339957 10.05551515984751 50.00670750383688 C 0.0 **** -0.24
2442 H 184.5267450461252 9.31273261718303 49.31731283237457 H 0.0 **** 0.06
2443 H 184.7128910326745 9.751969859524863 51.032087631766785 H 0.0 **** 0.06
2444 H 184.46478327151624 11.021695361856494 49.80935585276643 H 0.0 **** 0.06
2445 H 186.00617997050753 10.134048272384511 49.86987975999165 H 0.0 **** 0.06
2446 C 109.5263090878078 152.10346784318358 114.69525596312741 C 0.0 **** -0.24
2447 H 110.16806996098735 152.6381309262855 115.3956942103784 H 0.0 **** 0.06
2448 H 109.17977387098604 151.17763324623803 115.15492325248249 H 0.0 **** 0.06
2449 H 110.08927465892911 151.87202022712376 113.79054155939309 H 0.0 **** 0.06
2450 H 108.66935580774434 152.7264567883097 114.4404399583525 H 0.0 **** 0.06
2451 C 181.14448006032086 80.58724299291521 44.68501165817298 C 0.0 **** -0.24
2452 H 180.9273244883751 81.42014110388288 45.35385436061799 H 0.0 **** 0.06
2453 H 181.07500419421947 80.92434367970469 43.65026404618149 H 0.0 **** 0.06
2454 H 180.42406456261878 79.78658327274815 44.85587685284662 H 0.0 **** 0.06
2455 H 182.1506698543439 80.21748517214792 44.88035135125884 H 0.0 **** 0.06
2456 C 157.07466028106103 48.65477016999131 7.718108431357663 C 0.0 **** -0.24
2457 H 156.3542290888028 49.46051355812489 7.580864751550244 H 0.0 **** 0.06
2458 H 157.99108354533888 49.05679601858719 8.149440051085094 H 0.0 **** 0.06
2459 H 157.29623248584537 48.19796817322188 6.7536126797499065 H 0.0 **** 0.06
2460 H 156.65488251235212 47.903665357855175 8.388230496550811 H 0.0 **** 0.06
2461 C 173.50267433076124 72.76961376082625 131.06711937802595 C 0.0 **** -0.24
2462 H 174.11503752698033 72.18595662198663 131.75507725747184 H 0.0 **** 0.06
2463 H 173.3311775785107 73.761824122353 131.48617290703913 H 0.0 **** 0.06
2464 H 172.54593138488258 72.26726769288757 130.918355236857 H 0.0 **** 0.06
2465 H 174.0172912728064 72.86170920288055 130.11100109024886 H 0.0 **** 0.06
2466 C 85.84657928970034 68.82234513549615 133.32837761176785 C 0.0 **** -0.24
2467 H 86.76589603506204 68.75724540881154 132.74589917924555 H 0.0 **** 0.06
2468 H 85.27593202965409 69.69480622095543 133.01020828404523 H 0.0 **** 0.06
2469 H 86.09217227690624 68.91387999844453 134.3858788125088 H 0.0 **** 0.06
2470 H 85.25301547560127 67.92192997354596 133.16924274743639 H 0.0 **** 0.06
2471 C 77.93505324801521 52.41833795581152 90.51735184792169 C 0.0 **** -0.24
2472 H 77.98039958053508 52.6422138855653 89.45121786988246 H 0.0 **** 0.06
2473 H 77.17275863514537 51.659870634752224 90.69646247799916 H 0.0 **** 0.06
2474 H 77.68462301701946 53.32470909604916 91.0679246408299 H 0.0 **** 0.06
2475 H 78.9036613905899 52.04594869564539 90.85132920649777 H 0.0 **** 0.06
2476 C 43.57850762528071 102.9214112171956 156.51788613217036 C 0.0 **** -0.24
2477 H 43.80006834391101 102.13083654118746 155.80119869412732 H 0.0 **** 0.06
2478 H 44.25745696065441 102.84264532231872 157.36678841738222 H 0.0 **** 0.06
2479 H 42.54990150944461 102.81993693286621 156.8632320148522 H 0.0 **** 0.06
2480 H 43.70617262916471 103.8919410255967 156.0381498424066 H 0.0 **** 0.06
2481 C 43.6379824400606 109.74539564350697 57.85899530909171 C 0.0 **** -0.24
2482 H 43.127742478296 109.30502499938537 58.715436919516065 H 0.0 **** 0.06
2483 H 44.706532256006994 109.81232451409083 58.06774689274772 H 0.0 **** 0.06
2484 H 43.24106339561831 110.74326932576683 57.6722394486161 H 0.0 **** 0.06
2485 H 43.4772615507913 109.12024784983755 56.980754800334466 H 0.0 **** 0.06
2486 C 150.64757354169683 29.339972982457127 128.38922346121262 C 0.0 **** -0.24
2487 H 150.88898208439795 28.571144329091197 127.6545297791886 H 0.0 **** 0.06
2488 H 151.24699599897843 29.184420991084096 129.28684013135825 H 0.0 **** 0.06
2489 H 149.58891479484936 29.28058546999935 128.64258121920767 H 0.0 **** 0.06
2490 H 150.86651420691402 30.32253829051605 127.97112207922281 H 0.0 **** 0.06
2491 C 19.973567709614713 145.30550018725236 30.640836606054137 C 0.0 **** -0.24
2492 H 20.12590582248015 144.41261996257208 31.247764430674835 H 0.0 **** 0.06
2493 H 19.297738846404627 145.98538713059475 31.159917007711698 H 0.0 **** 0.06
2494 H 19.538959185047133 145.02269207517853 29.68170919931788 H 0.0 **** 0.06
2495 H 20.93081154323579 145.7994862362518 30.475360383661666 H 0.0 **** 0.06
2496 C 49.258903704173804 106.36429654378277 139.00412978738285 C 0.0 **** -0.24
2497 H 48.424937367500036 106.07687340180966 139.6436971619823 H 0.0 **** 0.06
2498 H 48.902011917435345 107.03322661674606 138.22030378567422 H 0.0 **** 0.06
2499 H 49.6942097831552 105.4729477896784 138.55259421419743 H 0.0 **** 0.06
2500 H 50.014602744732315 106.87559109346422 139.60129076363575 H 0.0 **** 0.06
2501 C 78.43057211808173 6.464216194848916 181.9083346530191 C 0.0 **** -0.24
2502 H 79.42066914729799 6.841014738382341 182.16607310239834 H 0.0 **** 0.06
2503 H 78.43410565980014 6.1120642342028475 180.87644759935333 H 0.0 **** 0.06
2504 H 77.69798316949016 7.263907763326387 182.01683897356065 H 0.0 **** 0.06
2505 H 78.17056745351954 5.64103836189355 182.57237316488565 H 0.0 **** 0.06
2506 C 163.22296891021372 115.44585673563819 96.01884332016728 C 0.0 **** -0.24
2507 H 162.53300995816878 114.62259090461038 96.20542411241676 H 0.0 **** 0.06
2508 H 163.93821300488344 115.51269516530414 96.83878348782933 H 0.0 **** 0.06
2509 H 162.6634424943416 116.37880095180128 95.94659612758754 H 0.0 **** 0.06
2510 H 163.75493859447118 115.26740813007382 95.08489862781566 H 0.0 **** 0.06
2511 C 106.86339506293685 12.458105953053902 47.26753042241131 C 0.0 **** -0.24
2512 H 107.61031570449806 12.314356862425328 46.48685115715051 H 0.0 **** 0.06
2513 H 107.35491481792131 12.481822467050286 48.24019337726419 H 0.0 **** 0.06
2514 H 106.1485357166358 11.636189412799567 47.241155084868154 H 0.0 **** 0.06
2515 H 106.34082019999683 13.400057438172219 47.10092827414107 H 0.0 **** 0.06
2516 C 75.53522693922817 62.85145796689123 55.30200749296742 C 0.0 **** -0.24
2517 H 75.78228681230846 62.75709819218616 54.24479937550893 H 0.0 **** 0.06
2518 H 75.53125698904981 61.864000029777245 55.76406532172706 H 0.0 **** 0.06
2519 H 74.54985088312402 63.306028809204136 55.40621281638522 H 0.0 **** 0.06
2520 H 76.2791078233547 63.47945244719391 55.794330126990076 H 0.0 **** 0.06
2521 C 130.83373685277206 182.27383008455803 82.6188161342794 C 0.0 **** -0.24
2522 H 130.89383656144526 183.31236142415756 82.2936330473902 H 0.0 **** 0.06
2523 H 130.4773470169252 182.23579571023944 83.64858360985737 H 0.0 **** 0.06
2524 H 131.82159791631796 181.8165370651333 82.55862486185542 H 0.0 **** 0.06
2525 H 130.14235040788543 181.7314819323502 81.97393969117057 H 0.0 **** 0.06
2526 C 124.32161827547372 147.03938444999372 94.65622558988515 C 0.0 **** -0.24
2527 H 124.23907294049434 146.092615740555 95.18904508699153 H 0.0 **** 0.06
2528 H 123.42991041894464 147.19253602676366 94.0478300999204 H 0.0 **** 0.06
2529 H 125.20135861751226 147.01921072503998 94.01334900513264 H 0.0 **** 0.06
2530 H 124.41561197234722 147.8528526748824 95.37546963032868 H 0.0 **** 0.06
2531 C 180.35033585886265 161.30242427460968 92.52946586451706 C 0.0 **** -0.24
2532 H 180.71268823109378 160.83264721803405 91.61593502224518 H 0.0 **** 0.06
2533 H 180.11885323036222 162.34951332928122 92.33253774620472 H 0.0 **** 0.06
2534 H 181.11893392043723 161.23874187699465 93.3001356710676 H 0.0 **** 0.06
2535 H 179.4508680535575 160.78879467412895 92.86925501855062 H 0.0 **** 0.06
2536 C 47.40776407455661 98.29620340018282 138.1917807838056 C 0.0 **** -0.24
2537 H 46.37914386448762 98.33652013810946 137.83376768169921 H 0.0 **** 0.06
2538 H 47.57357500429251 99.10100863168815 138.9090601418648 H 0.0 **** 0.06
2539 H 48.08999294714823 98.4126581716797 137.3498072626926 H 0.0 **** 0.06
2540 H 47.586404924758085 97.33556045215188 138.67509325219453 H 0.0 **** 0.06
2541 C 14.736606844258397 165.14216052884933 12.352554948011438 C 0.0 **** -0.24
2542 H 15.474453619385926 164.38802189775905 12.628765841544507 H 0.0 **** 0.06
2543 H 14.133643057399965 164.7737531900129 11.523217234744209 H 0.0 **** 0.06
2544 H 15.248402521358713 166.0572559199845 12.053302558495098 H 0.0 **** 0.06
2545 H 14.092041180992297 165.3490102082959 13.207612671526846 H 0.0 **** 0.06
2546 C 107.42419008620249 173.47662345782274 11.760420999014855 C 0.0 **** -0.24
2547 H 106.96852596441403 172.55116190446037 11.408303853139415 H 0.0 **** 0.06
2548 H 108.50988481219042 173.3837825162669 11.721409413007962 H 0.0 **** 0.06
2549 H 107.11260025401361 173.66702358112434 12.787485717143369 H 0.0 **** 0.06
2550 H 107.10672400882771 174.30278965710394 11.12467415517284 H 0.0 **** 0.06
2551 C 73.90937053962652 98.95460735917347 122.1162257699131 C 0.0 **** -0.24
2552 H 73.62436165442232 98.79535465674654 121.07593932268595 H 0.0 **** 0.06
2553 H 74.9965240819742 99.00095180730558 122.19174908782217 H 0.0 **** 0.06
2554 H 73.53752017342737 98.12935006485894 122.7241139874791 H 0.0 **** 0.06
2555 H 73.4796769935738 99.89082880378989 122.47173696852433 H 0.0 **** 0.06
2556 C 35.4319682454007 17.768018668569887 78.2215497404111 C 0.0 **** -0.24
2557 H 35.29688587009174 16.697525030370507 78.06586257302641 H 0.0 **** 0.06
2558 H 35.32670654988688 17.99604807108095 79.28299072822554 H 0.0 **** 0.06
2559 H 34.67882490244689 18.315315904848624 77.65599234581745 H 0.0 **** 0.06
2560 H 36.425223049094924 18.0615660367054 77.8836604523703 H 0.0 **** 0.06
2561 C 7.609729350325061 17.420299183052748 178.07138959014677 C 0.0 **** -0.24
2562 H 7.454298156808704 17.987103847265303 177.15318101330234 H 0.0 **** 0.06
2563 H 6.81038340912275 16.68696134905153 178.18424385300113 H 0.0 **** 0.06
2564 H 7.603646995450966 18.09940944574089 178.92252739275017 H 0.0 **** 0.06
2565 H 8.570250146239736 16.906848140441156 178.022756238216 H 0.0 **** 0.06
2566 C 175.9620798574502 0.13518563748056067 108.05361596642011 C 0.0 **** -0.24
2567 H 175.4300656336788 -0.30426129237457644 108.89741666919979 H 0.0 **** 0.06
2568 H 175.31024214060602 0.8440920127656568 107.54210181260466 H 0.0 **** 0.06
2569 H 176.2578721893037 -0.653261070954926 107.36081074648921 H 0.0 **** 0.06
2570 H 176.8512367114357 0.6533445245598557 108.414466142552 H 0.0 **** 0.06
2571 C 116.34231653553627 107.68661569990917 119.03762607867317 C 0.0 **** -0.24
2572 H 116.73232273767326 107.02798054116323 119.8132401823775 H 0.0 **** 0.06
2573 H 116.21387039877771 108.69001266708858 119.44377073672929 H 0.0 **** 0.06
2574 H 115.38078366263647 107.30930612889773 118.68976061525593 H 0.0 **** 0.06
2575 H 117.0432674337423 107.71927272006883 118.20355550622331 H 0.0 **** 0.06
2576 C 2.655361755191848 104.40211633145083 142.79136137336434 C 0.0 **** -0.24
2577 H 2.919452705926062 104.5721260447338 143.8351659681827 H 0.0 **** 0.06
2578 H 2.7109128496806534 103.33584382032501 142.57119693286268 H 0.0 **** 0.06
2579 H 3.3504057707368133 104.94313692981245 142.14918624638432 H 0.0 **** 0.06
2580 H 1.6415332357392458 104.75940840568194 142.61092726052095 H 0.0 **** 0.06
2581 C 119.47499195258644 179.4301037502211 42.1957780300917 C 0.0 **** -0.24
2582 H 118.75052636940711 179.00648978991228 41.50024500159071 H 0.0 **** 0.06
2583 H 119.24947368708911 179.08877564766027 43.20761402347637 H 0.0 **** 0.06
2584 H 119.42219607319214 180.5180224279649 42.15838952497421 H 0.0 **** 0.06
2585 H 120.47748942839013 179.10516044787192 41.91788953212236 H 0.0 **** 0.06
2586 C 10.630771452365082 173.74768966868905 176.8497955093511 C 0.0 **** -0.24
2587 H 9.619085193270962 173.81109906242105 177.24695474071783 H 0.0 **** 0.06
2588 H 10.613055733498811 173.93817452853125 175.77581548980663 H 0.0 **** 0.06
2589 H 11.031929094629731 172.75097604700156 177.03492756734445 H 0.0 **** 0.06
2590 H 11.261289723362552 174.48962600219645 177.33973790320962 H 0.0 **** 0.06
2591 C 74.79977886070974 118.38031909827548 56.48343247963243 C 0.0 **** -0.24
2592 H 75.39763031279315 117.47417286482415 56.38327251074034 H 0.0 **** 0.06
2593 H 75.26317234081948 119.18598003557382 55.913770030662704 H 0.0 **** 0.06
2594 H 74.74314292523886 118.66315352498906 57.53481606028424 H 0.0 **** 0.06
2595 H 73.79503398505855 118.1970251733412 56.10216952016714 H 0.0 **** 0.06
2596 C 135.0139931317985 77.20281120096706 60.9260311976403 C 0.0 **** -0.24
2597 H 135.34329950691733 78.20809507327607 60.661902388320996 H 0.0 **** 0.06
2598 H 135.88115432818807 76.59264796662535 61.17942350096243 H 0.0 **** 0.06
2599 H 134.49123105151256 76.75816716504431 60.079169430011476 H 0.0 **** 0.06
2600 H 134.3423623483189 77.25372011498172 61.78229675571089 H 0.0 **** 0.06
2601 C 25.446564970970257 58.868580924356166 32.81336418306137 C 0.0 **** -0.24
2602 H 24.8338024645044 58.852720351789 31.91203853907419 H 0.0 **** 0.06
2603 H 26.25166118619461 58.13874142679617 32.71797654870295 H 0.0 **** 0.06
2604 H 24.830108691086593 58.61814309532369 33.67623896652856 H 0.0 **** 0.06
2605 H 25.872612126142826 59.86281026892945 32.945916747120805 H 0.0 **** 0.06
2606 C 91.5776584881379 37.2877010465985 52.01700993566624 C 0.0 **** -0.24
2607 H 91.9196819218522 38.256172146663175 52.383107030909 H 0.0 **** 0.06
2608 H 91.07518016475251 36.75201453005786 52.82341485508604 H 0.0 **** 0.06
2609 H 92.43265312568201 36.70678680580235 51.67292542945171 H 0.0 **** 0.06
2610 H 90.8826517971903 37.43574696491845 51.191380822755605 H 0.0 **** 0.06
2611 C 34.03879852986644 97.3704294900911 173.7288586479317 C 0.0 **** -0.24
2612 H 34.510269518433645 97.16058444588104 174.68871046777053 H 0.0 **** 0.06
2613 H 34.74100763882906 97.15054765494686 172.92369049803915 H 0.0 **** 0.06
2614 H 33.75418472611334 98.4215889747732 173.6862197545521 H 0.0 **** 0.06
2615 H 33.15042023338326 96.74827164274045 173.61678725469199 H 0.0 **** 0.06
2616 C 151.54576601513764 135.27042544487512 163.03036034044928 C 0.0 **** -0.24
2617 H 152.49691168123397 135.53530981378287 163.49175122336467 H 0.0 **** 0.06
2618 H 151.22908968322068 136.07414338536404 162.3651092949451 H 0.0 **** 0.06
2619 H 150.79495242757108 135.1230771314864 163.80606181063263 H 0.0 **** 0.06
2620 H 151.6638079283523 134.3505691760413 162.458924536778 H 0.0 **** 0.06
2621 C 4.246443559219472 15.61724306140593 116.10787023672806 C 0.0 **** -0.24
2622 H 4.158073367262347 16.425494078707032 115.38129925792857 H 0.0 **** 0.06
2623 H 4.5028634852203595 16.031850191122942 117.08212127263168 H 0.0 **** 0.06
2624 H 5.0279505116999985 14.926827791493508 115.78957789124105 H 0.0 **** 0.06
2625 H 3.297720660561083 15.085305795447567 116.17647024313852 H 0.0 **** 0.06
2626 C 151.81631521881852 150.9894623376104 133.84305426971952 C 0.0 **** -0.24
2627 H 150.89126575897768 151.07566012043597 133.27360823598616 H 0.0 **** 0.06
2628 H 152.46650308664343 150.2522287317019 133.37182957254947 H 0.0 **** 0.06
2629 H 151.5877496723545 150.6745213174703 134.8616073254122 H 0.0 **** 0.06
2630 H 152.32004402191234 151.95578232758922 133.86606148047179 H 0.0 **** 0.06
2631 C 11.777342499422616 175.25719065904215 144.49037243495064 C 0.0 **** -0.24
2632 H 10.886552745504417 174.62908157027664 144.47087993145635 H 0.0 **** 0.06
2633 H 11.957989273522571 175.6000034535025 145.5091057125821 H 0.0 **** 0.06
2634 H 11.628216973659221 176.11805265382407 143.837455438463 H 0.0 **** 0.06
2635 H 12.635305598293257 174.68138610946818 144.14255234072766 H 0.0 **** 0.06
2636 C 80.6180489224023 163.3434463954613 120.49521470492296 C 0.0 **** -0.24
2637 H 80.98641384183475 164.3615471767116 120.62251535932425 H 0.0 **** 0.06
2638 H 79.90692454834868 163.11271887443968 121.28850488030632 H 0.0 **** 0.06
2639 H 81.45489550157356 162.6462409470708 120.54203074038908 H 0.0 **** 0.06
2640 H 80.1248882776647 163.25431247024505 119.52677208499303 H 0.0 **** 0.06
2641 C 92.46361482257184 22.047925509557132 163.2068846703547 C 0.0 **** -0.24
2642 H 92.41314429260696 22.82457601537628 162.4449122056461 H 0.0 **** 0.06
2643 H 91.50927964004715 21.523010190714942 163.2548809499453 H 0.0 **** 0.06
2644 H 92.67776373644541 22.50305338064976 164.17457690431547 H 0.0 **** 0.06
2645 H 93.25558493729908 21.34224273612263 162.95454057360558 H 0.0 **** 0.06
2646 C 81.78237626071461 152.19307800702882 159.3510696131176 C 0.0 **** -0.24
2647 H 81.536091410385 151.8344175157775 158.3515613375718 H 0.0 **** 0.06
2648 H 81.2221827816441 153.1049245066639 159.55807104072682 H 0.0 **** 0.06
2649 H 82.85080345182064 152.40119660078102 159.4082041190397 H 0.0 **** 0.06
2650 H 81.52124806196996 151.43046428540026 160.08482552634175 H 0.0 **** 0.06
2651 C 88.84997765940746 43.06296195356174 57.96588271845178 C 0.0 **** -0.24
2652 H 89.44377598142411 43.644416630694394 57.26156862596346 H 0.0 **** 0.06
2653 H 89.16456870268375 43.29394133944004 58.98394478851651 H 0.0 **** 0.06
2654 H 88.99598047795307 42.00026911410046 57.77330426768813 H 0.0 **** 0.06
2655 H 87.79583034746646 43.31246544147098 57.84588350202665 H 0.0 **** 0.06
2656 C 159.02473883245446 130.69935110286025 169.57933480344886 C 0.0 **** -0.24
2657 H 159.56139131786264 130.79007003710376 168.63467160380634 H 0.0 **** 0.06
2658 H 158.28057660434746 129.90664394756732 169.49859248650054 H 0.0 **** 0.06
2659 H 158.52823574513556 131.64214667388575 169.80625225169518 H 0.0 **** 0.06
2660 H 159.72912690535605 130.45771308344655 170.37496465495462 H 0.0 **** 0.06
2661 C 166.0514990971615 181.4468588356713 172.89421493806884 C 0.0 **** -0.24
2662 H 166.5070722227848 182.18737759376472 173.55180711053117 H 0.0 **** 0.06
2663 H 165.190196722503 181.8879570961765 172.39255279426544 H 0.0 **** 0.06
2664 H 165.72967946892808 180.58738731234303 173.4821513176216 H 0.0 **** 0.06
2665 H 166.78039242791607 181.12505404587174 172.1500720989684 H 0.0 **** 0.06
2666 C 126.30209890607831 173.1971290412228 36.001049806754565 C 0.0 **** -0.24
2667 H 126.67586520585927 172.25756582152374 35.59359173228256 H 0.0 **** 0.06
2668 H 127.14029672708863 173.86834331082926 36.1928158732363 H 0.0 **** 0.06
2669 H 125.77138889721233 173.0025187124452 36.93284863781756 H 0.0 **** 0.06
2670 H 125.62244368425472 173.65945852394395 35.28515973561046 H 0.0 **** 0.06
2671 C 64.40246790203426 117.26213251878268 25.91351929887574 C 0.0 **** -0.24
2672 H 64.39057182946819 118.35176839413562 25.873889405227914 H 0.0 **** 0.06
2673 H 63.76048908962369 116.92167533508096 26.725896964321265 H 0.0 **** 0.06
2674 H 65.42140420381905 116.91656798404593 26.08608902901493 H 0.0 **** 0.06
2675 H 64.0371380428517 116.86070973860207 24.967846930375956 H 0.0 **** 0.06
2676 C 74.52878340919881 113.13446540114393 136.52713036555497 C 0.0 **** -0.24
2677 H 73.987720805148 112.2335206444838 136.81559727236504 H 0.0 **** 0.06
2678 H 74.7059856641913 113.12204569816555 135.4511361717569 H 0.0 **** 0.06
2679 H 75.48269285805816 113.16902182364129 137.05258536740268 H 0.0 **** 0.06
2680 H 73.937880876392 114.01338332793819 136.78808032017395 H 0.0 **** 0.06
2681 C 40.12445156529316 167.40907235542937 61.59244244272948 C 0.0 **** -0.24
2682 H 39.147524508639776 167.30659394100098 62.06403765444901 H 0.0 **** 0.06
2683 H 40.005930613715094 167.40989475826183 60.50834996483445 H 0.0 **** 0.06
2684 H 40.7602694289445 166.57461851693802 61.888464066077674 H 0.0 **** 0.06
2685 H 40.58362947025023 168.3458224822815 61.909539012044206 H 0.0 **** 0.06
2686 C 67.6596522479266 4.2446721956311535 69.86592579220046 C 0.0 **** -0.24
2687 H 66.63699450802024 4.607210676531622 69.76440068714183 H 0.0 **** 0.06
2688 H 67.71178896688791 3.530864441710321 70.68833300784432 H 0.0 **** 0.06
2689 H 68.32442683231334 5.083739146891588 70.07008199469693 H 0.0 **** 0.06
2690 H 67.96586388814221 3.7555449110539882 68.94076185278504 H 0.0 **** 0.06
2691 C 87.36307369297667 105.56762295502597 88.10511201819124 C 0.0 **** -0.24
2692 H 87.92390272930056 104.76005367784683 87.63573265039558 H 0.0 **** 0.06
2693 H 88.05698952772674 106.26816845593419 88.57142330786952 H 0.0 **** 0.06
2694 H 86.69802970130733 105.15612683961257 88.8638680923818 H 0.0 **** 0.06
2695 H 86.77455932126314 106.08826904960563 87.34915642346986 H 0.0 **** 0.06
2696 C 1.5053434705071211 8.675714940983063 68.7541190530196 C 0.0 **** -0.24
2697 H 2.5347697486815264 8.431169533425624 69.01685362582744 H 0.0 **** 0.06
2698 H 1.0424861191316594 7.819247137843803 68.2630015933972 H 0.0 **** 0.06
2699 H 1.4968385659126113 9.530961469840946 68.07816312772994 H 0.0 **** 0.06
2700 H 0.948826636080085 8.921112028461785 69.65777253007094 H 0.0 **** 0.06
2701 C 118.62102365082383 11.101460196639422 176.21105348834234 C 0.0 **** -0.24
2702 H 119.38814838330778 11.488634074168345 175.54007851959423 H 0.0 **** 0.06
2703 H 117.6420684310908 11.453464040778826 175.88525701485327 H 0.0 **** 0.06
2704 H 118.81441448594707 11.451639209306286 177.22459479838562 H 0.0 **** 0.06
2705 H 118.63965459697876 10.011761338252732 176.19292479488217 H 0.0 **** 0.06
2706 C 87.9546749558558 159.12915419209074 132.93428288758992 C 0.0 **** -0.24
2707 H 88.84408059630742 159.24810205999043 133.55280642496086 H 0.0 **** 0.06
2708 H 88.0389581853279 159.76384775139914 132.0510372622548 H 0.0 **** 0.06
2709 H 87.07325397921498 159.41822218608414 133.5063144511077 H 0.0 **** 0.06
2710 H 87.86212273044431 158.08714453353053 132.62631804023238 H 0.0 **** 0.06
2711 C 117.76391955868786 119.70204827718534 60.3755223456988 C 0.0 **** -0.24
2712 H 116.98682726375239 119.0068331055519 60.057359177700036 H 0.0 **** 0.06
2713 H 117.35967173876332 120.37718880185942 61.13086026768133 H 0.0 **** 0.06
2714 H 118.10750395334486 120.27913742063744 59.5177104675175 H 0.0 **** 0.06
2715 H 118.59976068313875 119.14284732676909 60.79690375800067 H 0.0 **** 0.06
2716 C 127.5555261321681 12.431502265555018 4.601828825220316 C 0.0 **** -0.24
2717 H 127.50886837451395 11.418385609729043 5.00140868222902 H 0.0 **** 0.06
2718 H 127.91127050442373 13.111777702307855 5.375796293022951 H 0.0 **** 0.06
2719 H 126.562003287528 12.739741048009982 4.276050408866531 H 0.0 **** 0.06
2720 H 128.23900597780687 12.456135824201688 3.7530185668074267 H 0.0 **** 0.06
2721 C 18.863619900730832 66.05044054644156 112.79912111803561 C 0.0 **** -0.24
2722 H 18.215084662718766 65.50434894407871 113.48430311919513 H 0.0 **** 0.06
2723 H 19.258914430242292 65.36467777835628 112.04832548907076 H 0.0 **** 0.06
2724 H 19.68845990463258 66.49514103609876 113.35597640290571 H 0.0 **** 0.06
2725 H 18.29106688705651 66.83684619401582 112.30715102570353 H 0.0 **** 0.06
2726 C 146.42596546761717 32.058584887607864 72.28337574835767 C 0.0 **** -0.24
2727 H 145.5450406475523 31.416774815802285 72.30054140702549 H 0.0 **** 0.06
2728 H 147.1587037452481 31.65181544981256 71.58627560529027 H 0.0 **** 0.06
2729 H 146.86099261240145 32.10554856181618 73.28171645208839 H 0.0 **** 0.06
2730 H 146.13786741063768 33.0605819555916 71.96549251946355 H 0.0 **** 0.06
2731 C 80.46851543436019 99.44923237796421 114.42296486779502 C 0.0 **** -0.24
2732 H 79.51120621245607 99.40500726181345 114.9406505965918 H 0.0 **** 0.06
2733 H 80.9488569098131 100.40538403818785 114.63009146371239 H 0.0 **** 0.06
2734 H 80.3053450523553 99.34951862263976 113.34920698457138 H 0.0 **** 0.06
2735 H 81.10711084034023 98.63811489390882 114.77035464248901 H 0.0 **** 0.06
2736 C 87.92671018186958 60.520587809773005 26.821380922947498 C 0.0 **** -0.24
2737 H 88.6538679085014 61.14734795319812 26.304284463841768 H 0.0 **** 0.06
2738 H 88.45121724308986 59.75649763347863 27.39671817554192 H 0.0 **** 0.06
2739 H 87.27438978578171 60.04196403537773 26.090663633064466 H 0.0 **** 0.06
2740 H 87.32948560183802 61.135912601340976 27.494190377365896 H 0.0 **** 0.06
2741 C 164.8373664669287 83.3071488600157 33.1086119871575 C 0.0 **** -0.24
2742 H 164.4879934743518 84.32833685954758 32.95147834545611 H 0.0 **** 0.06
2743 H 164.6313006742729 82.71289704182016 32.218559167805466 H 0.0 **** 0.06
2744 H 164.31835559502528 82.8740073377894 33.96350993029199 H 0.0 **** 0.06
2745 H 165.909881780168 83.31538095720248 33.29982775392307 H 0.0 **** 0.06
2746 C 110.91208108618855 185.33175862641775 142.23894552155565 C 0.0 **** -0.24
2747 H 110.61329949752201 185.94636045953578 143.08804946648257 H 0.0 **** 0.06
2748 H 110.09401101055977 185.28566548486418 141.51921489947938 H 0.0 **** 0.06
2749 H 111.14972218472491 184.326389650257 142.58377916992242 H 0.0 **** 0.06
2750 H 111.78966855691732 185.7709186311325 141.76501612486982 H 0.0 **** 0.06
2751 C 120.86089411257416 3.9937300912429805 60.82536108631109 C 0.0 **** -0.24
2752 H 121.86024390572203 3.709431283036338 61.15647068741208 H 0.0 **** 0.06
2753 H 120.52160997459254 3.2988073439412346 60.05669729027841 H 0.0 **** 0.06
2754 H 120.88840466359159 5.003999568708878 60.4150134808184 H 0.0 **** 0.06
2755 H 120.17594708654264 3.9636464269746057 61.672186856404835 H 0.0 **** 0.06
2756 C 170.99234132501124 97.0051373714341 111.00767699687242 C 0.0 **** -0.24
2757 H 170.0660068368869 97.52772095379055 110.77078639106469 H 0.0 **** 0.06
2758 H 170.86048757740627 96.43286487475388 111.9261018163379 H 0.0 **** 0.06
2759 H 171.7942330050611 97.73049880797993 111.1435956194822 H 0.0 **** 0.06
2760 H 171.24695101402224 96.32935416337364 110.19168783852808 H 0.0 **** 0.06
2761 C 73.46150314220715 11.831070845814907 6.08288774210817 C 0.0 **** -0.24
2762 H 72.61050859025559 12.320686533325528 5.609237957770908 H 0.0 **** 0.06
2763 H 73.43436608237316 10.76321011790344 5.862807203440283 H 0.0 **** 0.06
2764 H 73.41278408909955 11.98062446063463 7.161172267154029 H 0.0 **** 0.06
2765 H 74.38685178189826 12.257932834216916 5.69770327965302 H 0.0 **** 0.06
2766 C 110.10877243883816 110.64512390356862 110.87306146412038 C 0.0 **** -0.24
2767 H 110.2662953005288 111.02768959635364 111.88083840839113 H 0.0 **** 0.06
2768 H 110.61502515758521 111.29254441218228 110.15657751446071 H 0.0 **** 0.06
2769 H 109.04139782863821 110.62533215583687 110.65398595003074 H 0.0 **** 0.06
2770 H 110.51406560684784 109.63636892726674 110.80060330935987 H 0.0 **** 0.06
2771 C 136.0144845536645 178.94420600900924 47.82241341885424 C 0.0 **** -0.24
2772 H 135.50327980715355 179.89023486947855 47.64511858971622 H 0.0 **** 0.06
2773 H 135.88126485097035 178.29264664014306 46.95778210642385 H 0.0 **** 0.06
2774 H 135.59616258277225 178.46434994973043 48.7067443718081 H 0.0 **** 0.06
2775 H 137.07744223468927 179.12873492893812 47.9769721529058 H 0.0 **** 0.06
2776 C 51.8765565813776 57.01899759489031 57.015492993140555 C 0.0 **** -0.24
2777 H 51.43605942976197 57.04476964879794 56.01863170284423 H 0.0 **** 0.06
2778 H 51.98287897503582 55.98301065676411 57.338049947137904 H 0.0 **** 0.06
2779 H 51.22966387246808 57.55217204050824 57.711671260398475 H 0.0 **** 0.06
2780 H 52.85615309642657 57.49467200105117 56.99221535123817 H 0.0 **** 0.06
2781 C 57.810051526236364 76.81245861807814 166.77484883856707 C 0.0 **** -0.24
2782 H 58.229618733708705 77.39429774966058 167.59642596987428 H 0.0 **** 0.06
2783 H 57.704336375464436 75.77197661710402 167.0829866181768 H 0.0 **** 0.06
2784 H 58.474657675010945 76.87131404515293 165.9130367572052 H 0.0 **** 0.06
2785 H 56.83305453972673 77.21452861767825 166.50775531062703 H 0.0 **** 0.06
2786 C 147.95235480755488 163.18202668967797 113.4147577740132 C 0.0 **** -0.24
2787 H 147.19161006430025 163.44512817672287 112.68088900699377 H 0.0 **** 0.06
2788 H 147.89053772910074 163.86519972234856 114.26293208690379 H 0.0 **** 0.06
2789 H 148.93916095420292 163.2572150298719 112.95858270712228 H 0.0 **** 0.06
2790 H 147.78773168623385 162.16019798222973 113.75827736867507 H 0.0 **** 0.06
2791 C 9.294662470230442 120.29956862816742 35.877425673997834 C 0.0 **** -0.24
2792 H 8.8918302582532 120.84523255192134 36.73133344489838 H 0.0 **** 0.06
2793 H 10.298878132544807 120.66288353024747 35.65677986245629 H 0.0 **** 0.06
2794 H 8.652287748253123 120.45455664407335 35.010500188281355 H 0.0 **** 0.06
2795 H 9.336783442496959 119.23563013106194 36.113018733109925 H 0.0 **** 0.06
2796 C 108.88449240869244 23.965867089838497 38.75076589234207 C 0.0 **** -0.24
2797 H 108.97131812071893 23.55313505852922 39.75569321357645 H 0.0 **** 0.06
2798 H 109.85038113946416 23.90600159845451 38.248162200085545 H 0.0 **** 0.06
2799 H 108.57114797222931 25.008358020898072 38.81294550488745 H 0.0 **** 0.06
2800 H 108.1454525266318 23.39787099117973 38.18680240326006 H 0.0 **** 0.06
2801 C 158.52086136793332 118.54214778457033 184.2960554182215 C 0.0 **** -0.24
2802 H 158.84201527489518 118.76612706935502 183.2785787242853 H 0.0 **** 0.06
2803 H 158.61854104844548 117.47191994397893 184.4797029777896 H 0.0 **** 0.06
2804 H 157.47940438201616 118.839095042235 184.4220119585097 H 0.0 **** 0.06
2805 H 159.14361496352117 119.0908239996785 185.00231792098427 H 0.0 **** 0.06
2806 C 75.72003469818662 0.34030019605337714 63.27963092256881 C 0.0 **** -0.24
2807 H 75.35381784529409 0.6776048940592503 64.24909371804712 H 0.0 **** 0.06
2808 H 76.67730296404903 0.8160046207133789 63.06648981821321 H 0.0 **** 0.06
2809 H 75.0005745747718 0.6084966433107013 62.506456206761726 H 0.0 **** 0.06
2810 H 75.84811365432432 -0.7422319154815824 63.296846712851504 H 0.0 **** 0.06
2811 C 48.86972501416818 35.79350025555698 75.67677156017628 C 0.0 **** -0.24
2812 H 48.37975527005257 35.20087249538017 76.44989274925004 H 0.0 **** 0.06
2813 H 48.201048399498035 35.89652191156614 74.82039923397544 H 0.0 **** 0.06
2814 H 49.7869580483344 35.29490606198499 75.36413480077606 H 0.0 **** 0.06
2815 H 49.10828460628946 36.780339282911655 76.0727177740907 H 0.0 **** 0.06
2816 C 109.40004797091599 71.62039573802826 179.92398719988864 C 0.0 **** -0.24
2817 H 109.22123857305594 70.78000124356868 179.25339443829765 H 0.0 **** 0.06
2818 H 110.17083584999376 71.35121499991652 180.6468144008027 H 0.0 **** 0.06
2819 H 108.47705272837236 71.86622721082517 180.4513647603013 H 0.0 **** 0.06
2820 H 109.72829869760865 72.48400056287616 179.34552844424192 H 0.0 **** 0.06
2821 C 181.50385022804718 13.11226391504897 139.0971733179639 C 0.0 **** -0.24
2822 H 181.1882513950028 12.892089144362977 140.11790778712316 H 0.0 **** 0.06
2823 H 180.65577342075795 12.998750202116383 138.42267891217483 H 0.0 **** 0.06
2824 H 182.2961578401925 12.42352728035037 138.8053757202063 H 0.0 **** 0.06
2825 H 181.87586308568035 14.136027543201322 139.04616493627844 H 0.0 **** 0.06
2826 C 161.86946050811554 161.26026426012083 66.27310052084135 C 0.0 **** -0.24
2827 H 162.92404721765308 161.28414061667922 66.54574521470528 H 0.0 **** 0.06
2828 H 161.2811430289127 160.92101634553632 67.12641628319886 H 0.0 **** 0.06
2829 H 161.7250176550909 160.57581413970576 65.43738606631564 H 0.0 **** 0.06
2830 H 161.54593312569816 162.2603808866182 65.98271429998317 H 0.0 **** 0.06
2831 C 150.86285289527177 152.48905879528195 30.297457320321712 C 0.0 **** -0.24
2832 H 151.30581952324232 151.70737056035637 29.67977742752197 H 0.0 **** 0.06
2833 H 150.4256851606039 153.25490158232788 29.656569992412358 H 0.0 **** 0.06
2834 H 151.63304397417568 152.93620787734505 30.92572379046993 H 0.0 **** 0.06
2835 H 150.08528201875302 152.05520548247648 30.927747926185447 H 0.0 **** 0.06
2836 C 164.41444990653162 85.16275481109741 156.17090700411345 C 0.0 **** -0.24
2837 H 164.72092162755237 84.37252230407887 156.8564002841798 H 0.0 **** 0.06
2838 H 165.28957409599113 85.54638901587752 155.64531415606575 H 0.0 **** 0.06
2839 H 163.94461206160756 85.96938271997242 156.73232141590233 H 0.0 **** 0.06
2840 H 163.70397105760108 84.76067975645122 155.44780891335202 H 0.0 **** 0.06
2841 C 93.54345391738401 159.7342850423273 108.69126847086112 C 0.0 **** -0.24
2842 H 94.23468346331192 159.74325384960252 107.84835468791364 H 0.0 **** 0.06
2843 H 92.56489831920457 159.39260188815996 108.35574515303581 H 0.0 **** 0.06
2844 H 93.45755311155445 160.74131886023764 109.1004473127674 H 0.0 **** 0.06
2845 H 93.92024701845058 159.06029195281565 109.46161104153244 H 0.0 **** 0.06
2846 C 22.41270742122005 104.66369445670738 88.78123841952616 C 0.0 **** -0.24
2847 H 21.43573626596475 104.80304561775993 89.2445601114557 H 0.0 **** 0.06
2848 H 23.1110771345449 104.27047569663647 89.52119257840305 H 0.0 **** 0.06
2849 H 22.778084723393548 105.61957144991457 88.40802410535385 H 0.0 **** 0.06
2850 H 22.32523252717779 103.95965993102682 87.9542445432706 H 0.0 **** 0.06
2851 C 150.52337409757524 67.44051916145833 73.3202446453678 C 0.0 **** -0.24
2852 H 149.7138550030026 67.9847894127638 72.8327868332519 H 0.0 **** 0.06
2853 H 151.4721605671374 67.93330050886959 73.10686668646866 H 0.0 **** 0.06
2854 H 150.5507360138193 66.41811373465404 72.9444191375354 H 0.0 **** 0.06
2855 H 150.35400177708107 67.42772218203177 74.39714372558227 H 0.0 **** 0.06
2856 C 23.77103703339486 120.47883023296066 14.766924998494517 C 0.0 **** -0.24
2857 H 23.531657328440076 120.77660929329903 13.74662145350149 H 0.0 **** 0.06
2858 H 23.56829029570889 119.41492188510483 14.89164533492351 H 0.0 **** 0.06
2859 H 23.158899617250512 121.05005487828441 15.465423797012022 H 0.0 **** 0.06
2860 H 24.82460413246818 120.67438455799629 14.964313485544608 H 0.0 **** 0.06
2861 C 12.939916992361788 21.03637184304074 3.74693748737252 C 0.0 **** -0.24
2862 H 12.05539903234498 21.334096586772432 4.311119504577448 H 0.0 **** 0.06
2863 H 13.754702567303099 21.72983713907891 3.9580908540428084 H 0.0 **** 0.06
2864 H 12.713547510254244 21.05484549854961 2.6807785174120795 H 0.0 **** 0.06
2865 H 13.234601820291715 20.02855993598098 4.038511425666115 H 0.0 **** 0.06
2866 C 48.341638929974636 182.05533505926442 111.43183182331973 C 0.0 **** -0.24
2867 H 48.33873848344446 183.1447739033343 111.41683411836033 H 0.0 **** 0.06
2868 H 47.361855981591575 181.68401833848444 111.13023665151667 H 0.0 **** 0.06
2869 H 48.56809614018846 181.70673451110144 112.43951736766354 H 0.0 **** 0.06
2870 H 49.09933734786007 181.68490968281873 110.74061366961331 H 0.0 **** 0.06
2871 C 65.39792382037535 12.811245356801422 99.19234301743643 C 0.0 **** -0.24
2872 H 65.60510485710427 11.959610874817756 99.83939793030584 H 0.0 **** 0.06
2873 H 64.32979838196093 12.850315841798341 98.97423993439537 H 0.0 **** 0.06
2874 H 65.95477243424256 12.703636029599416 98.26101856270787 H 0.0 **** 0.06
2875 H 65.70043171967427 13.730704930221023 99.69227240834772 H 0.0 **** 0.06
2876 C 71.37623226141545 140.11533784466866 19.64071455898739 C 0.0 **** -0.24
2877 H 71.20864780937455 141.01033073826846 20.239873581888588 H 0.0 **** 0.06
2878 H 71.76794489937657 139.3214668811392 20.276313846851522 H 0.0 **** 0.06
2879 H 72.09329667991449 140.33642661453797 18.851004672881132 H 0.0 **** 0.06
2880 H 70.43329331718093 139.79438015664056 19.19684104142653 H 0.0 **** 0.06
2881 C 46.52894616139341 15.884213888932557 63.18949923747584 C 0.0 **** -0.24
2882 H 45.61926434782116 15.28758549330967 63.125546865962235 H 0.0 **** 0.06
2883 H 47.21198484840667 15.430222757083456 63.908298651518294 H 0.0 **** 0.06
2884 H 46.277777595492964 16.89448210065823 63.51396784532136 H 0.0 **** 0.06
2885 H 47.00675785385279 15.924565204678998 62.210183587101426 H 0.0 **** 0.06
2886 C 64.04611935464382 173.5672421257109 159.92526999466585 C 0.0 **** -0.24
2887 H 63.4613582251001 172.6563236401662 159.79803284412282 H 0.0 **** 0.06
2888 H 63.43385553671958 174.43088280688633 159.66820361656752 H 0.0 **** 0.06
2889 H 64.91825658039758 173.5326733721683 159.2719163090783 H 0.0 **** 0.06
2890 H 64.37256376409992 173.64783323776857 160.96295324428974 H 0.0 **** 0.06
2891 C 78.03838039329673 105.49654056474488 94.40858557291851 C 0.0 **** -0.24
2892 H 77.12047510082505 105.03398424939495 94.04469834769814 H 0.0 **** 0.06
2893 H 77.8413295509805 105.99350141522855 95.35841936833633 H 0.0 **** 0.06
2894 H 78.38845080069547 106.22839568158419 93.68047557706153 H 0.0 **** 0.06
2895 H 78.80038437029032 104.72977062112973 94.54918842529808 H 0.0 **** 0.06
2896 C 165.32501246260944 55.656344188227536 75.77687900370603 C 0.0 **** -0.24
2897 H 165.79002237233541 54.77725912111862 75.33109252659693 H 0.0 **** 0.06
2898 H 164.9935864716261 56.331680697885645 74.98700571199169 H 0.0 **** 0.06
2899 H 166.04796079854313 56.16693495871405 76.41237653316455 H 0.0 **** 0.06
2900 H 164.4680091029063 55.348871450052286 76.37549833275352 H 0.0 **** 0.06
2901 C 90.82940534378038 100.45619223911432 51.769599059759116 C 0.0 **** -0.24
2902 H 90.16344010483009 100.13602308516282 52.57063361957515 H 0.0 **** 0.06
2903 H 91.19773639528223 101.46035233805215 51.982009324728736 H 0.0 **** 0.06
2904 H 90.28621317980624 100.45959783878335 50.82436202652764 H 0.0 **** 0.06
2905 H 91.67245194068472 99.76780313875524 51.70109887896702 H 0.0 **** 0.06
2906 C 6.6136696110705415 76.23073854207439 58.655083420410705 C 0.0 **** -0.24
2907 H 7.466741230414264 75.60061276494514 58.40235887814431 H 0.0 **** 0.06
2908 H 5.700398054457352 75.77719745070954 58.270018615477966 H 0.0 **** 0.06
2909 H 6.746660147849546 77.21682563259014 58.210759085207826 H 0.0 **** 0.06
2910 H 6.5429032742457025 76.32733720459947 59.73816659821772 H 0.0 **** 0.06
2911 C 184.45294126577994 81.0005130770944 25.06190465928006 C 0.0 **** -0.24
2912 H 183.76050613854272 81.26342224035778 25.860813727043194 H 0.0 **** 0.06
2913 H 183.89404225493558 80.80326851711247 24.146641929710086 H 0.0 **** 0.06
2914 H 185.01222580079417 80.1087015365432 25.344691413020087 H 0.0 **** 0.06
2915 H 185.14489876367026 81.82549746946437 24.8946715327088 H 0.0 **** 0.06
2916 C 59.02617657293811 86.18723420506633 182.6142072064207 C 0.0 **** -0.24
2917 H 58.45509236525558 85.37232726483533 182.16778486787294 H 0.0 **** 0.06
2918 H 58.627227777001366 86.41009065776659 183.6041775301288 H 0.0 **** 0.06
2919 H 58.951118504797975 87.07202038541986 181.98305347445154 H 0.0 **** 0.06
2920 H 60.07148590500647 85.89041529995465 182.70128365181006 H 0.0 **** 0.06
2921 C 89.65038245001354 107.06398934142408 123.26476485476901 C 0.0 **** -0.24
2922 H 89.16786666940418 107.58277365553357 122.4355189579911 H 0.0 **** 0.06
2923 H 89.59474560305596 105.98841967189168 123.10053099343072 H 0.0 **** 0.06
2924 H 89.1431835960537 107.31799812273084 124.19533200199596 H 0.0 **** 0.06
2925 H 90.69517397072771 107.36942346706144 123.32552707955811 H 0.0 **** 0.06
2926 C 33.35105824808355 147.9091706061552 44.05716933958652 C 0.0 **** -0.24
2927 H 32.51403456894246 148.3335748232641 43.50261475422727 H 0.0 **** 0.06
2928 H 34.276535369667414 148.3891900419669 43.74011447716731 H 0.0 **** 0.06
2929 H 33.41075246377909 146.83864180744865 43.861685202785225 H 0.0 **** 0.06
2930 H 33.201508909914935 148.07686937048402 45.12355879590535 H 0.0 **** 0.06
2931 C 151.00341263838322 154.47834491669113 60.195316601768 C 0.0 **** -0.24
2932 H 151.11678646812334 153.60828015092778 60.841799419808154 H 0.0 **** 0.06
2933 H 150.24221408658772 154.27519879509094 59.44252462281122 H 0.0 **** 0.06
2934 H 151.95331581631342 154.6909695150607 59.703616362377886 H 0.0 **** 0.06
2935 H 150.7036940623098 155.33828014551483 60.79324093581937 H 0.0 **** 0.06
2936 C 24.69324911902089 171.739511605993 39.675348096804726 C 0.0 **** -0.24
2937 H 23.924284176040615 171.43550801644363 38.96453650510938 H 0.0 **** 0.06
2938 H 25.543650688495305 172.15587847853934 39.1341326176979 H 0.0 **** 0.06
2939 H 25.017103168721334 170.87347118959215 40.25192670922203 H 0.0 **** 0.06
2940 H 24.286257639445267 172.49345617754614 40.349054173777745 H 0.0 **** 0.06
2941 C 69.09853239693028 122.61406335460053 52.37907537585613 C 0.0 **** -0.24
2942 H 69.09468401225303 123.49252027192158 53.02438692713878 H 0.0 **** 0.06
2943 H 69.833316013873 122.74941940970474 51.58587166904479 H 0.0 **** 0.06
2944 H 68.10943392923053 122.47998706448907 51.940921136996224 H 0.0 **** 0.06
2945 H 69.35782577870117 121.73320716160235 52.968199068031 H 0.0 **** 0.06
2946 C 169.08480862790842 24.57583620560351 11.202550143655799 C 0.0 **** -0.24
2947 H 169.73126109652802 24.497560787018102 12.075944955209252 H 0.0 **** 0.06
2948 H 168.16718072612187 25.09788819377792 11.475193021390567 H 0.0 **** 0.06
2949 H 168.84107640482102 23.57629086961424 10.841658049389025 H 0.0 **** 0.06
2950 H 169.59923581269567 25.129965129112776 10.41768763273376 H 0.0 **** 0.06
2951 C 128.1271412179883 80.69979259834412 71.57273250967278 C 0.0 **** -0.24
2952 H 127.7893428090595 81.28035953271291 72.43163567773162 H 0.0 **** 0.06
2953 H 129.17980305854178 80.91161153631367 71.38316940708253 H 0.0 **** 0.06
2954 H 127.5377947762757 80.97098709250218 70.69670985820716 H 0.0 **** 0.06
2955 H 128.00172072183852 79.63688815605457 71.7810069152466 H 0.0 **** 0.06
2956 C 51.1217026706625 114.15062164544095 39.20331923848266 C 0.0 **** -0.24
2957 H 51.31463875340518 114.22229151422322 38.132589357077194 H 0.0 **** 0.06
2958 H 50.14427089732436 114.57851889421853 39.42504299571817 H 0.0 **** 0.06
2959 H 51.89080449944174 114.69805611047794 39.7476860566527 H 0.0 **** 0.06
2960 H 51.13876275438355 113.10340280805768 39.505683307650656 H 0.0 **** 0.06
2961 C 6.3110448936218475 151.4572270526482 9.178107905150682 C 0.0 **** -0.24
2962 H 6.451699709600213 150.7892173264591 10.028272365087503 H 0.0 **** 0.06
2963 H 6.320240615876067 150.87729123246635 8.255521739328032 H 0.0 **** 0.06
2964 H 7.118382374568384 152.19040461436447 9.155474712490445 H 0.0 **** 0.06
2965 H 5.355326825961043 151.97175502191118 9.274830664218541 H 0.0 **** 0.06
2966 C 184.89174950352225 160.638827989772 114.35426615568633 C 0.0 **** -0.24
2967 H 184.12234121912348 160.49476900486295 113.59639991464815 H 0.0 **** 0.06
2968 H 185.7875723747257 160.08435522581388 114.073501633136 H 0.0 **** 0.06
2969 H 184.5264642581493 160.27823839753935 115.31545613689832 H 0.0 **** 0.06
2970 H 185.13108591898464 161.70010252163686 114.43132357971945 H 0.0 **** 0.06
2971 C 15.210061902430539 44.16607511539178 67.11555305761341 C 0.0 **** -0.24
2972 H 15.343923501476866 43.164673456962134 67.52464247746187 H 0.0 **** 0.06
2973 H 14.732238237891124 44.801174684523744 67.86231706069707 H 0.0 **** 0.06
2974 H 14.581878344740971 44.11484738190296 66.22619570384693 H 0.0 **** 0.06
2975 H 16.181353014966817 44.58381540836993 66.85134295917024 H 0.0 **** 0.06
2976 C 122.88936507134959 34.78966344307753 163.9881656997751 C 0.0 **** -0.24
2977 H 122.8141318523936 35.38069135014064 164.90046023452504 H 0.0 **** 0.06
2978 H 123.81464190001195 34.21338363955829 164.00355240738097 H 0.0 **** 0.06
2979 H 122.88954619932186 35.454075256176026 163.12363560102304 H 0.0 **** 0.06
2980 H 122.03835780518112 34.1115584134333 163.92449023564566 H 0.0 **** 0.06
2981 C 184.76089764821182 64.28533630910029 155.36656224597766 C 0.0 **** -0.24
2982 H 184.9657436789968 63.42887651890899 154.7234626281785 H 0.0 **** 0.06
2983 H 185.12188238914865 65.19510603038997 154.88579675265123 H 0.0 **** 0.06
2984 H 185.27016735343582 64.15152483020367 156.32109366286713 H 0.0 **** 0.06
2985 H 183.6863985221904 64.36408182652384 155.53464900077483 H 0.0 **** 0.06
2986 C 107.20156209742896 40.46446857255823 120.89054820080963 C 0.0 **** -0.24
2987 H 107.46072883656922 40.88409793702995 121.86186386866603 H 0.0 **** 0.06
2988 H 107.98333848090886 40.70565408956733 120.16977041625631 H 0.0 **** 0.06
2989 H 106.25388871719235 40.887071642328166 120.55426823698639 H 0.0 **** 0.06
2990 H 107.10570301422797 39.3822445841039 120.97535754910234 H 0.0 **** 0.06
2991 C 124.88687322846835 10.18813406513766 132.81878564683853 C 0.0 **** -0.24
2992 H 123.94154556404794 9.733125634126452 132.5212451871858 H 0.0 **** 0.06
2993 H 124.71992940983614 11.233144222463011 133.0792542385821 H 0.0 **** 0.06
2994 H 125.59428797926154 10.127726542376763 131.99206099416426 H 0.0 **** 0.06
2995 H 125.28890902064381 9.657868504922533 133.68181288222814 H 0.0 **** 0.06
2996 C 173.86515107884625 117.84925425145396 31.10021288838567 C 0.0 **** -0.24
2997 H 173.16075503670004 117.19956616374417 30.5802686795692 H 0.0 **** 0.06
2998 H 173.42518125338293 118.1813829261567 32.041240248138024 H 0.0 **** 0.06
2999 H 174.08800339925892 118.71480203204833 30.476929464373768 H 0.0 **** 0.06
3000 H 174.78447271823046 117.29898653424068 31.302431938422103 H 0.0 **** 0.06
3001 C 89.82310888613772 6.5877843424494245 80.23492320492683 C 0.0 **** -0.24
3002 H 89.57214593243451 7.355223760869421 79.50367313633764 H 0.0 **** 0.06
3003 H 90.62790964027322 6.946766608788693 80.8770889644943 H 0.0 **** 0.06
3004 H 90.14604280854418 5.684509114323362 79.71773668473762 H 0.0 **** 0.06
3005 H 88.94572835279438 6.3638292507203005 80.84218171246658 H 0.0 **** 0.06
3006 C 63.971047260758624 12.583701669360018 34.57220320079955 C 0.0 **** -0.24
3007 H 64.35994192728187 11.991642582520512 33.7430069816553 H 0.0 **** 0.06
3008 H 63.97921343298502 13.638738643435545 34.299427382232864 H 0.0 **** 0.06
3009 H 64.59619728356549 12.430554661132632 35.451603447530545 H 0.0 **** 0.06
3010 H 62.950064704785675 12.27190628766619 34.79315258852699 H 0.0 **** 0.06
3011 C 140.2441505416332 101.07865703305775 25.39035762791258 C 0.0 **** -0.24
3012 H 140.19879801033835 101.39765348478396 26.43199806151432 H 0.0 **** 0.06
3013 H 141.0433671892385 100.34704271661012 25.269276583344606 H 0.0 **** 0.06
3014 H 140.44138322488146 101.94219799285501 24.75491160354636 H 0.0 **** 0.06
3015 H 139.29241290178584 100.62901438693869 25.106640641794513 H 0.0 **** 0.06
3016 C 152.35253134910687 71.43161851932376 34.18044925388085 C 0.0 **** -0.24
3017 H 152.14984311886752 70.3604824233267 34.18517330764402 H 0.0 **** 0.06
3018 H 153.3456553296313 71.61244684835503 33.769887170344546 H 0.0 **** 0.06
3019 H 152.30382669200085 71.81434213607719 35.19979651965315 H 0.0 **** 0.06
3020 H 151.60723855018307 71.93805612707024 33.566946228543245 H 0.0 **** 0.06
3021 C 147.4356951313669 84.2453418278018 175.83158854454814 C 0.0 **** -0.24
3022 H 148.27473949782768 84.25087832749813 176.52783079997616 H 0.0 **** 0.06
3023 H 146.52338805607212 84.5238303959686 176.3607211592834 H 0.0 **** 0.06
3024 H 147.32100729707085 83.24764329745008 175.4081470487098 H 0.0 **** 0.06
3025 H 147.6241724486251 84.96054399174305 175.0308323192142 H 0.0 **** 0.06
3026 C 184.35125825307682 30.438758430294513 14.072365984249203 C 0.0 **** -0.24
3027 H 185.31039255557363 30.040956690265688 13.740743412613242 H 0.0 **** 0.06
3028 H 183.6715928798732 30.50246950129082 13.22223995926516 H 0.0 **** 0.06
3029 H 184.4974430569229 31.43093870477827 14.49792989187528 H 0.0 **** 0.06
3030 H 183.92693049939837 29.77734217595821 14.828131737734267 H 0.0 **** 0.06
3031 C 172.54284990517021 21.116683992874954 110.0638856035789 C 0.0 **** -0.24
3032 H 171.84336353026404 21.94452090789082 110.18095063489169 H 0.0 **** 0.06
3033 H 173.53568246294216 21.43262467845068 110.38226168449434 H 0.0 **** 0.06
3034 H 172.57558916085767 20.815160378260856 109.0161284486317 H 0.0 **** 0.06
3035 H 172.21520956558632 20.275532419161664 110.67388492611211 H 0.0 **** 0.06
3036 C 64.11112430672776 143.5137224567876 119.44940358884185 C 0.0 **** -0.24
3037 H 64.61644217212897 144.05257101904579 120.25105404330685 H 0.0 **** 0.06
3038 H 63.29829976981446 144.12612779843622 119.0570333913331 H 0.0 **** 0.06
3039 H 63.70762223421295 142.57889189151916 119.83835506724108 H 0.0 **** 0.06
3040 H 64.822714907682 143.29896652388746 118.65254346720576 H 0.0 **** 0.06
3041 C 6.462476670811888 176.47814752751356 91.58855408041393 C 0.0 **** -0.24
3042 H 5.661875689778988 176.35192102912578 90.86010347159385 H 0.0 **** 0.06
3043 H 6.648431690585113 175.53005352291586 92.09294464990114 H 0.0 **** 0.06
3044 H 6.1713388335645405 177.23019199994013 92.32223469704707 H 0.0 **** 0.06
3045 H 7.369494003967546 176.80190417256205 91.07742144448576 H 0.0 **** 0.06
3046 C 172.15523869283956 152.9987349399975 82.4224708987573 C 0.0 **** -0.24
3047 H 171.66746734995937 153.8777178797605 82.00137771940547 H 0.0 **** 0.06
3048 H 172.86261872085478 153.3093042026435 83.19119424575052 H 0.0 **** 0.06
3049 H 172.68562258812582 152.46505774299897 81.63346395975213 H 0.0 **** 0.06
3050 H 171.4038094602971 152.3419227136519 82.862413176769 H 0.0 **** 0.06
3051 C 61.83656076024509 82.17502843203823 166.5019931603209 C 0.0 **** -0.24
3052 H 61.14108310425269 81.33753476779249 166.56175576807564 H 0.0 **** 0.06
3053 H 62.05471179913623 82.53806280702206 167.5058713932933 H 0.0 **** 0.06
3054 H 61.38915764598207 82.9769301360564 165.91366459190348 H 0.0 **** 0.06
3055 H 62.759608160827966 81.8456909598709 166.02478912489175 H 0.0 **** 0.06
3056 C 14.025494482297518 185.22362795613472 158.4996392498397 C 0.0 **** -0.24
3057 H 14.491175647525552 185.68891536104314 159.36852534804535 H 0.0 **** 0.06
3058 H 12.950218702177352 185.1453187942277 158.6619138610322 H 0.0 **** 0.06
3059 H 14.444202912760602 184.2281152061434 158.3535811516909 H 0.0 **** 0.06
3060 H 14.216751512425617 185.83173644693377 157.61583318519675 H 0.0 **** 0.06
3061 C 53.00008656779448 0.6426899287334322 150.8736858856247 C 0.0 **** -0.24
3062 H 53.412517677158974 1.1618345661945852 150.00897739740543 H 0.0 **** 0.06
3063 H 53.40542901736086 1.0793353746076946 151.78640359349322 H 0.0 **** 0.06
3064 H 53.268513255487875 -0.41321645012786234 150.82527900498724 H 0.0 **** 0.06
3065 H 51.91511492374582 0.7423235463203923 150.87357599646953 H 0.0 **** 0.06
3066 C 138.42199049926535 89.16034609750183 29.370964323771418 C 0.0 **** -0.24
3067 H 138.03216785416447 90.03436798488396 28.84846319623597 H 0.0 **** 0.06
3068 H 139.37319938667434 88.86689400150406 28.92695657391026 H 0.0 **** 0.06
3069 H 137.71095540390667 88.33921182496066 29.28458178568212 H 0.0 **** 0.06
3070 H 138.57116261711093 89.40285945439389 30.422868454856555 H 0.0 **** 0.06
3071 C 143.72900623915757 121.6913930716777 70.72705654418932 C 0.0 **** -0.24
3072 H 143.41849554565312 122.21948675404867 71.62860328989584 H 0.0 **** 0.06
3073 H 144.6790202828808 121.18884795768632 70.91017699892389 H 0.0 **** 0.06
3074 H 143.84495297766443 122.40374560704008 69.91087485104448 H 0.0 **** 0.06
3075 H 142.9728279568945 120.95336393010884 70.46068136010578 H 0.0 **** 0.06
3076 C 125.82560529315629 96.39159531754619 109.89970225768191 C 0.0 **** -0.24
3077 H 125.09593726351017 97.19705420949985 109.98751981068592 H 0.0 **** 0.06
3078 H 126.40957074132757 96.32803000712208 110.81816738115235 H 0.0 **** 0.06
3079 H 126.49015453034588 96.59306731041822 109.0596780290944 H 0.0 **** 0.06
3080 H 125.30577426851363 95.44810382028886 109.73332057845305 H 0.0 **** 0.06
3081 C 17.027693180307693 47.96036427641508 138.2423332435235 C 0.0 **** -0.24
3082 H 16.199696422551824 47.298890223460376 138.49687951661554 H 0.0 **** 0.06
3083 H 17.664163950163868 47.47558416708108 137.50218693128608 H 0.0 **** 0.06
3084 H 17.609566016928284 48.175326927148944 139.13851314711349 H 0.0 **** 0.06
3085 H 16.63533937110853 48.890258597295485 137.83189521048365 H 0.0 **** 0.06
3086 C 149.64686232076497 74.04469624029073 133.08840481251735 C 0.0 **** -0.24
3087 H 149.10445363935227 74.94006026818461 133.39411950603602 H 0.0 **** 0.06
3088 H 150.18813657868435 74.2458320053375 132.1643155706306 H 0.0 **** 0.06
3089 H 148.9405853428483 73.23010324306023 132.92732890403767 H 0.0 **** 0.06
3090 H 150.35244016636423 73.76374159355149 133.8700305182848 H 0.0 **** 0.06
3091 C 94.883353652454 109.8232390144073 20.49506334080681 C 0.0 **** -0.24
3092 H 95.48705561746318 110.6977299316834 20.252339348689247 H 0.0 **** 0.06
3093 H 95.25099628452143 109.37430811792626 21.41902782364332 H 0.0 **** 0.06
3094 H 94.95301726962732 109.09729323943594 19.684862699145185 H 0.0 **** 0.06
3095 H 93.84382051647877 110.1242922210655 20.625861642874384 H 0.0 **** 0.06
3096 C 62.421982283938135 143.21225042644318 3.0816797717747875 C 0.0 **** -0.24
3097 H 62.15293572581331 143.79803233251013 3.9608998139070124 H 0.0 **** 0.06
3098 H 61.88604432247949 142.2631292359681 3.100141566884375 H 0.0 **** 0.06
3099 H 63.49630544758085 143.02370986824994 3.085629647384785 H 0.0 **** 0.06
3100 H 62.153255022455156 143.76469780393552 2.182122724936228 H 0.0 **** 0.06
3101 C 183.6468978012009 132.67778563279217 27.690249782636997 C 0.0 **** -0.24
3102 H 182.64713375172508 133.11046336155977 27.659311431435285 H 0.0 **** 0.06
3103 H 183.5759437110601 131.59470753867174 27.586150105412614 H 0.0 **** 0.06
3104 H 184.119653881291 132.92139727759957 28.641063323007742 H 0.0 **** 0.06
3105 H 184.24334783658782 133.08323715108656 26.87308653100817 H 0.0 **** 0.06
3106 C 136.26716044930203 163.2090912806151 182.23768427791472 C 0.0 **** -0.24
3107 H 136.98889040417436 162.43435330658144 182.49581466785838 H 0.0 **** 0.06
3108 H 135.94786086488546 163.0771640458467 181.20286332940626 H 0.0 **** 0.06
3109 H 136.7298972515884 164.18891582709898 182.35405379188063 H 0.0 **** 0.06
3110 H 135.40243560257352 163.13464376559136 182.89693526598296 H 0.0 **** 0.06
3111 C 157.97627257042464 3.6296657785974276 150.91085634690745 C 0.0 **** -0.24
3112 H 157.3268045752157 4.3375704190643205 151.4240099895998 H 0.0 **** 0.06
3113 H 158.8450041627468 3.4159560530304134 151.53511910053663 H 0.0 **** 0.06
3114 H 158.30525997633578 4.057390781135496 149.96386797904134 H 0.0 **** 0.06
3115 H 157.42930970971474 2.7059703851887775 150.72151851235475 H 0.0 **** 0.06
3116 C 56.98162967148676 52.33341888051018 8.494394852875331 C 0.0 **** -0.24
3117 H 56.582513167333275 51.971759742493646 7.546081044548025 H 0.0 **** 0.06
3118 H 56.161546644590004 52.51430857063167 9.188535391363402 H 0.0 **** 0.06
3119 H 57.52883972948436 53.26162071011885 8.327000403128224 H 0.0 **** 0.06
3120 H 57.655064853169165 51.58507557844024 8.912949194416761 H 0.0 **** 0.06
3121 C 51.88379243402758 53.93001917983517 86.25758993260608 C 0.0 **** -0.24
3122 H 51.8614411891067 54.70168176814002 85.48806239202922 H 0.0 **** 0.06
3123 H 50.865861531092975 53.7071945396774 86.57831447882741 H 0.0 **** 0.06
3124 H 52.46409356409498 54.28485582595607 87.10981345787802 H 0.0 **** 0.06
3125 H 52.344751356258115 53.02824767691453 85.85536191773384 H 0.0 **** 0.06
3126 C 137.28841681090933 162.0522632288355 14.802118060468885 C 0.0 **** -0.24
3127 H 136.83487128608806 161.48062394848122 15.61181204756069 H 0.0 **** 0.06
3128 H 136.9467824350536 161.65936828291902 13.844249128896202 H 0.0 **** 0.06
3129 H 138.373813689666 161.96933010932645 14.862699325331171 H 0.0 **** 0.06
3130 H 136.99845576562603 163.09876642898163 14.889782070137116 H 0.0 **** 0.06
3131 C 154.08324989637947 163.88527784992075 3.5581819293003036 C 0.0 **** -0.24
3132 H 153.6544895939159 164.74101302392822 4.0800404225027975 H 0.0 **** 0.06
3133 H 155.04737687936594 163.6348210289005 4.003023423995344 H 0.0 **** 0.06
3134 H 154.22163067839162 164.1334713949497 2.5061562300417606 H 0.0 **** 0.06
3135 H 153.4102626406417 163.03258972788387 3.645700339712789 H 0.0 **** 0.06
3136 C 81.37187325239346 142.69095094514887 24.561885258161738 C 0.0 **** -0.24
3137 H 81.75357409324332 141.6942500499033 24.343559529214815 H 0.0 **** 0.06
3138 H 81.62651317412062 143.3645302338831 23.74250386918061 H 0.0 **** 0.06
3139 H 81.81998183002074 143.05748953795 25.485403814712043 H 0.0 **** 0.06
3140 H 80.2882302306106 142.64904421668246 24.674321929075063 H 0.0 **** 0.06
3141 C 72.65250502995004 68.36302343188089 80.40009484155536 C 0.0 **** -0.24
3142 H 73.67340034938282 68.61807182434926 80.68435251853316 H 0.0 **** 0.06
3143 H 72.03042761938109 69.25705761661423 80.44000635974078 H 0.0 **** 0.06
3144 H 72.25914098810088 67.61588851164242 81.09043427956226 H 0.0 **** 0.06
3145 H 72.64794516688112 67.96035162452604 79.3875036250667 H 0.0 **** 0.06
3146 C 68.14007837554418 14.792901811518504 6.106568789718608 C 0.0 **** -0.24
3147 H 68.34963423638382 15.423058546903576 5.2418207278429065 H 0.0 **** 0.06
3148 H 67.59626186109936 15.370596127814508 6.854172458508231 H 0.0 **** 0.06
3149 H 69.0772661069553 14.43624380986148 6.531991579223586 H 0.0 **** 0.06
3150 H 67.53488530443732 13.940108977083298 5.795986855695418 H 0.0 **** 0.06
3151 C 167.1764280780206 18.378619434937576 26.830933885167923 C 0.0 **** -0.24
3152 H 167.53565084346886 17.57133559512991 27.468239259725536 H 0.0 **** 0.06
3153 H 168.02740724327967 18.91806490041293 26.413733164880156 H 0.0 **** 0.06
3154 H 166.56549816180893 19.06299851516698 27.419476383661717 H 0.0 **** 0.06
3155 H 166.5777203620146 17.961514584047876 26.021119103579878 H 0.0 **** 0.06
3156 C 117.19513494525567 41.88856115480766 163.76060423318228 C 0.0 **** -0.24
3157 H 117.52339573965087 42.02604670613147 162.72961782490813 H 0.0 **** 0.06
3158 H 116.87185301769615 42.84622783913511 164.16998145293485 H 0.0 **** 0.06
3159 H 118.02192125444726 41.49952675405905 164.35540420983347 H 0.0 **** 0.06
3160 H 116.36555354704238 41.18304224041856 163.785445544874 H 0.0 **** 0.06
3161 C 143.38209536953553 81.79755972214951 177.31161783203675 C 0.0 **** -0.24
3162 H 144.12294119843634 81.22868199753464 176.74934657335123 H 0.0 **** 0.06
3163 H 143.63709733395132 82.85639677118591 177.27990912892136 H 0.0 **** 0.06
3164 H 143.37326638654758 81.45730433080058 178.34771662647717 H 0.0 **** 0.06
3165 H 142.39684511251443 81.64581526840003 176.8708061784214 H 0.0 **** 0.06
3166 C 181.80660608606502 97.37326902551177 135.46323863150155 C 0.0 **** -0.24
3167 H 181.30405847754741 96.59943228785147 136.04351870857704 H 0.0 **** 0.06
3168 H 182.42007814990816 96.9083362021965 134.69097709575624 H 0.0 **** 0.06
3169 H 182.44065714921348 97.96637281784774 136.12274186861362 H 0.0 **** 0.06
3170 H 181.0629507328503 98.01929727264002 134.997484873593 H 0.0 **** 0.06
3171 C 124.6814074178696 174.28828655491853 73.3047150556881 C 0.0 **** -0.24
3172 H 125.3564604793923 174.43068581416986 72.46055559793577 H 0.0 **** 0.06
3173 H 124.84988078158955 175.07304109671006 74.04163593179705 H 0.0 **** 0.06
3174 H 124.86996723565176 173.3150374447988 73.75881609026055 H 0.0 **** 0.06
3175 H 123.64994888510614 174.33276298393014 72.95561980073423 H 0.0 **** 0.06
3176 C 59.60761987426861 35.465200040080305 168.70713567240196 C 0.0 **** -0.24
3177 H 60.410958183957064 36.0896869774549 169.09710101873083 H 0.0 **** 0.06
3178 H 59.993333797665116 34.833722606972 167.90744113196635 H 0.0 **** 0.06
3179 H 58.810471824195304 36.099516903717756 168.31852470527787 H 0.0 **** 0.06
3180 H 59.214382590679406 34.83855195890666 169.5087565486855 H 0.0 **** 0.06
3181 C 109.8249809315481 152.68666365642628 140.7640623128372 C 0.0 **** -0.24
3182 H 110.66923859089194 151.99773096311083 140.74205989165256 H 0.0 **** 0.06
3183 H 109.24263103839495 152.5185031521694 141.6706758142809 H 0.0 **** 0.06
3184 H 109.19521271953569 152.5172842811495 139.89111903263768 H 0.0 **** 0.06
3185 H 110.19358484339433 153.71253236111545 140.75210706498962 H 0.0 **** 0.06
3186 C 102.22266381398094 7.272527702098728 117.05915266514114 C 0.0 **** -0.24
3187 H 101.93663951111483 8.32290978104868 117.12216832879909 H 0.0 **** 0.06
3188 H 103.21905214679242 7.141545841508957 117.48086512390705 H 0.0 **** 0.06
3189 H 102.22576831412692 6.960481159157041 116.01486167312925 H 0.0 **** 0.06
3190 H 101.50803853111398 6.668099512342792 117.61668975027254 H 0.0 **** 0.06
3191 C 137.1386918093782 113.31111777295952 34.98595390634762 C 0.0 **** -0.24
3192 H 136.13095279543472 113.21657372044284 35.39096980149566 H 0.0 **** 0.06
3193 H 137.14469116247454 112.97938455507052 33.94769987098101 H 0.0 **** 0.06
3194 H 137.82334600864783 112.69429981699498 35.568996465559565 H 0.0 **** 0.06
3195 H 137.45488737071616 114.35265889066788 35.037488497214554 H 0.0 **** 0.06
3196 C 74.82761974465427 1.4503060789573823 10.560788236962196 C 0.0 **** -0.24
3197 H 75.567332145231 2.250135912846197 10.524357925090051 H 0.0 **** 0.06
3198 H 74.98781401667787 0.8468459430190904 11.454661293324307 H 0.0 **** 0.06
3199 H 74.92788302434838 0.8218639266287724 9.675563908441198 H 0.0 **** 0.06
3200 H 73.82720810809838 1.8809980444908163 10.588380377868745 H 0.0 **** 0.06
3201 C 159.28903049429346 58.080017994107266 105.59349261833076 C 0.0 **** -0.24
3202 H 158.5182253061932 57.39215672826032 105.94124771500721 H 0.0 **** 0.06
3203 H 158.89166846443527 59.09521791056733 105.58072842587502 H 0.0 **** 0.06
3204 H 159.6005190635831 57.798002031795704 104.58727979085775 H 0.0 **** 0.06
3205 H 160.14670516235583 58.03369131643416 106.26471491429608 H 0.0 **** 0.06
3206 C 50.15478286743735 117.25686741621206 159.71521301498515 C 0.0 **** -0.24
3207 H 50.57518729916933 116.30092717164547 160.0285016053926 H 0.0 **** 0.06
3208 H 50.20977176016811 117.96503252814387 160.5430063468021 H 0.0 **** 0.06
3209 H 49.114372281463034 117.11824312040113 159.42360292264235 H 0.0 **** 0.06
3210 H 50.7223719249331 117.64191540673193 158.86787655444942 H 0.0 **** 0.06
3211 C 73.25941014402923 112.91862041507046 130.4799040095433 C 0.0 **** -0.24
3212 H 72.60757368973839 112.11476839423987 130.1367283302123 H 0.0 **** 0.06
3213 H 73.93794204133758 112.53553800171922 131.24242463505487 H 0.0 **** 0.06
3214 H 72.65323251241512 113.72052305683944 130.90214945035774 H 0.0 **** 0.06
3215 H 73.83677238333598 113.30282293387496 129.63921820454033 H 0.0 **** 0.06
3216 C 7.584857517348425 93.43146544837946 101.42056988782952 C 0.0 **** -0.24
3217 H 7.820116808665162 93.22625703168593 102.46548709250573 H 0.0 **** 0.06
3218 H 7.611821992437548 92.50106828500783 100.85310411295995 H 0.0 **** 0.06
3219 H 8.316803304897057 94.12768926054899 101.01298174574731 H 0.0 **** 0.06
3220 H 6.588766826088062 93.86961635780408 101.35265453267874 H 0.0 **** 0.06
3221 C 138.12108280853505 169.16316985817406 179.34789353495339 C 0.0 **** -0.24
3222 H 137.05361290671533 169.38151798998265 179.31027070727728 H 0.0 **** 0.06
3223 H 138.27087780015012 168.08422170187205 179.37848250232707 H 0.0 **** 0.06
3224 H 138.55309603290755 169.61692294720942 180.24043154384375 H 0.0 **** 0.06
3225 H 138.60557134316292 169.572684966758 178.4611626771202 H 0.0 **** 0.06
3226 C 98.54990040613473 143.4401222910254 34.806166460582745 C 0.0 **** -0.24
3227 H 98.3724918892529 143.30401300566535 33.739363834535425 H 0.0 **** 0.06
3228 H 97.83440684389655 142.84331613961302 35.37242237390842 H 0.0 **** 0.06
3229 H 98.4302741323985 144.49248195118855 35.06254713203538 H 0.0 **** 0.06
3230 H 99.56374299416467 143.1195717526927 35.04930831826607 H 0.0 **** 0.06
3231 C 44.24258179789285 6.682452884888278 69.4988178863589 C 0.0 **** -0.24
3232 H 43.66077103982687 6.843886973542254 68.5910598502693 H 0.0 **** 0.06
3233 H 45.30507181984811 6.748837289542962 69.2647272479355 H 0.0 **** 0.06
3234 H 44.019743935305996 5.694551297371476 69.90252708317772 H 0.0 **** 0.06
3235 H 43.98370629885605 7.443071249430432 70.23567509977053 H 0.0 **** 0.06
3236 C 65.65959562618221 34.04786842843916 128.35597547747682 C 0.0 **** -0.24
3237 H 66.22573353117065 34.56305329523434 129.13158090144572 H 0.0 **** 0.06
3238 H 64.72619703711729 33.67375698820487 128.77599459042102 H 0.0 **** 0.06
3239 H 66.24654741589251 33.21212066953029 127.97284144781169 H 0.0 **** 0.06
3240 H 65.44167222963529 34.74161097871007 127.54356914626361 H 0.0 **** 0.06
3241 C 22.993892588129484 21.979930011725003 179.6718407145957 C 0.0 **** -0.24
3242 H 23.06815476089156 22.80731544642323 178.96568007335128 H 0.0 **** 0.06
3243 H 21.971009262388748 21.911506004007535 180.0434618177936 H 0.0 **** 0.06
3244 H 23.672767098083796 22.15215580871144 180.50609367291838 H 0.0 **** 0.06
3245 H 23.261442822802877 21.04928821997966 179.1711900417722 H 0.0 **** 0.06
3246 C 12.970369405963652 42.44163180070211 45.981305953772704 C 0.0 **** -0.24
3247 H 14.012218769377654 42.17717436427523 46.163285462064124 H 0.0 **** 0.06
3248 H 12.863356666553244 42.821167283834484 44.966155027718884 H 0.0 **** 0.06
3249 H 12.66285662292377 43.20975708396652 46.6916480030726 H 0.0 **** 0.06
3250 H 12.34475365070137 41.557923662015085 46.108113774318696 H 0.0 **** 0.06
3251 C 165.58607365151204 62.610727753331616 37.25999657848615 C 0.0 **** -0.24
3252 H 166.31967589639265 63.35891150033508 36.95941681349041 H 0.0 **** 0.06
3253 H 166.07412559968776 61.848283838322644 37.86780736854445 H 0.0 **** 0.06
3254 H 165.1560272529146 62.14740188252729 36.37165958622688 H 0.0 **** 0.06
3255 H 164.79654040669274 63.088208135369584 37.839804382084026 H 0.0 **** 0.06
3256 C 131.94920877701946 147.35651038492617 83.85368808156333 C 0.0 **** -0.24
3257 H 132.14317742259186 148.14816188031804 83.13055087682794 H 0.0 **** 0.06
3258 H 132.70230950782906 146.57580119439152 83.74686199986895 H 0.0 **** 0.06
3259 H 130.95986245839964 146.93441275930292 83.6730285764807 H 0.0 **** 0.06
3260 H 131.99010228744783 147.7669592597527 84.86241688288217 H 0.0 **** 0.06
3261 C 106.67313271037398 55.7507048186892 178.92202285676385 C 0.0 **** -0.24
3262 H 106.05566430046474 56.234380782251606 179.6787636858681 H 0.0 **** 0.06
3263 H 106.87695980941618 54.7223036619763 179.22255234226768 H 0.0 **** 0.06
3264 H 107.61350955836292 56.2925142425797 178.82060640646696 H 0.0 **** 0.06
3265 H 106.14766218099209 55.75390997407234 177.96731620003362 H 0.0 **** 0.06
3266 C 50.43833441736257 119.07974354390176 73.80213698328491 C 0.0 **** -0.24
3267 H 49.51415533680222 118.96333903267235 73.23619495779182 H 0.0 **** 0.06
3268 H 50.31175738890977 118.6484996898895 74.79544779629416 H 0.0 **** 0.06
3269 H 50.67597571069092 120.14010225120639 73.89394340706738 H 0.0 **** 0.06
3270 H 51.24922810284136 118.56880131110908 73.28393161354538 H 0.0 **** 0.06
3271 C 77.18575368561073 90.54694624847117 22.070787569408253 C 0.0 **** -0.24
3272 H 77.27362252983615 91.58881084709101 22.37853354069256 H 0.0 **** 0.06
3273 H 76.2070124683268 90.16385335578055 22.359054495585355 H 0.0 **** 0.06
3274 H 77.96469556840727 89.95813902927695 22.555823629880194 H 0.0 **** 0.06
3275 H 77.29907632214791 90.47772780872843 20.98851164713392 H 0.0 **** 0.06
3276 C 57.99994294461938 18.206008231430076 47.99549762140602 C 0.0 **** -0.24
3277 H 58.64174238615951 18.788751891249376 48.65634379849766 H 0.0 **** 0.06
3278 H 58.31506918614811 17.162954839573644 48.00896686983093 H 0.0 **** 0.06
3279 H 58.07498688359047 18.59661232096377 46.979834657123064 H 0.0 **** 0.06
3280 H 56.96716516736279 18.278423860553062 48.336789884607455 H 0.0 **** 0.06
3281 C 71.85586280241148 83.19548954756085 0.08112738378537188 C 0.0 **** -0.24
3282 H 72.15726007912247 82.95716530044402 1.1009688364106012 H 0.0 **** 0.06
3283 H 72.71391719904969 83.09961883166324 -0.5832782087148018 H 0.0 **** 0.06
3284 H 71.47745600106025 84.21727057568597 0.04315106849799122 H 0.0 **** 0.06
3285 H 71.07137417036184 82.50691382937976 -0.23525445537973155 H 0.0 **** 0.06
3286 C 126.87479276070015 160.7582979160466 125.55079150870313 C 0.0 **** -0.24
3287 H 127.11044050585541 161.80563117886302 125.7382522434732 H 0.0 **** 0.06
3288 H 126.692506052627 160.61202908751952 124.48603456238823 H 0.0 **** 0.06
3289 H 125.98359740815083 160.48099883863696 126.11379988207943 H 0.0 **** 0.06
3290 H 127.71121155930537 160.1352989740144 125.8657188736031 H 0.0 **** 0.06
3291 C 29.32457819600353 144.54890202483273 74.13931238795865 C 0.0 **** -0.24
3292 H 29.073642237360076 143.81436052274546 74.90603159722143 H 0.0 **** 0.06
3293 H 29.32763957039728 144.06495684307086 73.16202323830882 H 0.0 **** 0.06
3294 H 30.311659718409715 144.96343078776903 74.3434602010196 H 0.0 **** 0.06
3295 H 28.58540837645009 145.3492057785307 74.14653827531463 H 0.0 **** 0.06
3296 C 34.40840053529064 180.4346562465461 4.206943535090147 C 0.0 **** -0.24
3297 H 35.334686457838856 179.9508813371889 4.514734953582405 H 0.0 **** 0.06
3298 H 33.91326670777798 179.82394447113526 3.4523860699765407 H 0.0 **** 0.06
3299 H 34.63178797044455 181.41690003564597 3.79034473564343 H 0.0 **** 0.06
3300 H 33.75328180315884 180.54761712450446 5.0706944527269115 H 0.0 **** 0.06
3301 C 166.80818459321702 59.33005778584821 138.83304573502045 C 0.0 **** -0.24
3302 H 167.24565813277644 59.37990864218571 139.829709236606 H 0.0 **** 0.06
3303 H 166.48753915127605 58.308939587490414 138.62787391398916 H 0.0 **** 0.06
3304 H 167.5507995617348 59.634088856589 138.0949085553578 H 0.0 **** 0.06
3305 H 165.9490115026456 59.99940281091318 138.7803843389134 H 0.0 **** 0.06
3306 C 167.31780873193526 148.9988427783344 100.11409236401556 C 0.0 **** -0.24
3307 H 166.41519302506515 148.41412772382364 100.29396058008217 H 0.0 **** 0.06
3308 H 167.1991358526755 149.9919282650954 100.54636577715928 H 0.0 **** 0.06
3309 H 167.4855838384506 149.08599373186092 99.04105202700242 H 0.0 **** 0.06
3310 H 168.17087297501155 148.50114011733564 100.57519194121426 H 0.0 **** 0.06
3311 C 8.76867756777699 167.42820364660014 68.80223563469892 C 0.0 **** -0.24
3312 H 9.498342648073844 168.2267313755316 68.93868237930747 H 0.0 **** 0.06
3313 H 8.352442509695265 167.48481793473547 67.79596997151961 H 0.0 **** 0.06
3314 H 7.968186514287652 167.54049893194133 69.53408686797434 H 0.0 **** 0.06
3315 H 9.256080280952176 166.46396753647602 68.94148235010312 H 0.0 **** 0.06
3316 C 43.57073347957481 49.43368133661642 162.9442146095821 C 0.0 **** -0.24
3317 H 43.847615549008765 48.425918386978026 163.25223814134532 H 0.0 **** 0.06
3318 H 43.10854652040223 49.39797573978936 161.9582208657003 H 0.0 **** 0.06
3319 H 44.46207927425951 50.05971688433556 162.90620770772608 H 0.0 **** 0.06
3320 H 42.863603210570716 49.85077257071583 163.66211437964915 H 0.0 **** 0.06
3321 C 120.65572649513142 154.47097168965246 145.7631977721728 C 0.0 **** -0.24
3322 H 120.26643954972373 155.29615497003618 146.35919574266777 H 0.0 **** 0.06
3323 H 121.31197310638929 153.85509748183776 146.37833329770345 H 0.0 **** 0.06
3324 H 121.21681169307034 154.8672063257646 144.91692838583015 H 0.0 **** 0.06
3325 H 119.82623010340338 153.86454499293663 145.39687986664825 H 0.0 **** 0.06
3326 C 165.7456324041928 156.0788916150308 149.12866670227146 C 0.0 **** -0.24
3327 H 165.70754163463698 156.81138921109397 149.93523953820124 H 0.0 **** 0.06
3328 H 166.7590053617393 156.0319069816446 148.7279347515758 H 0.0 **** 0.06
3329 H 165.0559995154768 156.37343124366478 148.33725892918125 H 0.0 **** 0.06
3330 H 165.4606933747781 155.09947810433908 149.5139384335539 H 0.0 **** 0.06
3331 C 3.243802809835941 121.73429999963192 162.0532042938185 C 0.0 **** -0.24
3332 H 4.142372450955165 121.11905716938888 162.0923987822482 H 0.0 **** 0.06
3333 H 3.0894934241205547 122.21496807630395 163.019093091334 H 0.0 **** 0.06
3334 H 2.3840388418886533 121.10669138003489 161.81789872231394 H 0.0 **** 0.06
3335 H 3.3591904205276393 122.49687445485988 161.2820724654195 H 0.0 **** 0.06
3336 C 41.93494616719022 104.54410350590707 112.52675230793966 C 0.0 **** -0.24
3337 H 42.33654344021804 104.46020391243131 111.51686723831932 H 0.0 **** 0.06
3338 H 42.577611413837076 105.19411002377815 113.11961590423925 H 0.0 **** 0.06
3339 H 41.89564890652508 103.5551463926014 112.98388568855557 H 0.0 **** 0.06
3340 H 40.93069743802084 104.96556622391849 112.48407881286948 H 0.0 **** 0.06
3341 C 27.259180977775998 59.59336168058758 122.68619841905617 C 0.0 **** -0.24
3342 H 26.47118244724787 59.03545442070174 122.1796807147317 H 0.0 **** 0.06
3343 H 27.904774774338847 58.9000320690152 123.22615868270061 H 0.0 **** 0.06
3344 H 26.81117843312532 60.2958317778415 123.38965052705326 H 0.0 **** 0.06
3345 H 27.84726634753609 60.140624199152455 121.95083548323878 H 0.0 **** 0.06
3346 C 158.48171026999773 63.323787503616614 161.42833818079546 C 0.0 **** -0.24
3347 H 159.56084884329664 63.17230354767611 161.4360128273159 H 0.0 **** 0.06
3348 H 158.12305837123597 63.3289929923223 160.39882708676652 H 0.0 **** 0.06
3349 H 158.24643325228521 64.27758993135224 161.90060930822386 H 0.0 **** 0.06
3350 H 157.99815175935248 62.5167854517624 161.97794094155836 H 0.0 **** 0.06
3351 C 103.7099501338277 109.47353978556164 94.25330189656997 C 0.0 **** -0.24
3352 H 103.55863425229506 110.46670395706816 93.83025603729779 H 0.0 **** 0.06
3353 H 102.74198041264356 109.01004113545964 94.44469414167465 H 0.0 **** 0.06
3354 H 104.26479237873048 109.5571008439977 95.18744694961156 H 0.0 **** 0.06
3355 H 104.27333968220728 108.8608434189551 93.55003045190595 H 0.0 **** 0.06
3356 C 50.784390663699355 1.0423503058648294 85.02144238019292 C 0.0 **** -0.24
3357 H 50.07823411290036 1.750905135024027 85.45343812544405 H 0.0 **** 0.06
3358 H 50.237655693243084 0.22189088998908346 84.55682255893441 H 0.0 **** 0.06
3359 H 51.43177993291707 0.6507241999581197 85.80545925971217 H 0.0 **** 0.06
3360 H 51.39068650808795 1.5466053719642332 84.2686910596982 H 0.0 **** 0.06
3361 C 87.25408613434577 82.68263115851465 100.3368203115672 C 0.0 **** -0.24
3362 H 86.27116061945249 83.00552256672506 99.9933484195178 H 0.0 **** 0.06
3363 H 87.22432597291744 81.61935512708703 100.57376284507681 H 0.0 **** 0.06
3364 H 87.53066182486636 83.24652832498293 101.2268524457826 H 0.0 **** 0.06
3365 H 87.98830608825973 82.86067868675104 99.55108275888118 H 0.0 **** 0.06
3366 C 7.224930687021526 24.75308076593643 65.53776267021266 C 0.0 **** -0.24
3367 H 7.034098819408456 23.683141919872128 65.45594933569845 H 0.0 **** 0.06
3368 H 6.297789037688879 25.26896893636649 65.79005843439074 H 0.0 **** 0.06
3369 H 7.602877403123543 25.128066438863186 64.58737677319795 H 0.0 **** 0.06
3370 H 7.96467145384085 24.931267840568182 66.31913157298516 H 0.0 **** 0.06
3371 C 125.13382036655776 55.30334907440459 36.01572572192056 C 0.0 **** -0.24
3372 H 124.27957838983826 55.747254150332765 36.526558652375485 H 0.0 **** 0.06
3373 H 124.95759207094875 54.23698935921516 35.87313919043076 H 0.0 **** 0.06
3374 H 126.03171360439995 55.44576852410421 36.61680790384575 H 0.0 **** 0.06
3375 H 125.26685744643999 55.782427913725996 35.04546236732432 H 0.0 **** 0.06
3376 C 158.09231370584854 107.92295139346146 138.74100694857577 C 0.0 **** -0.24
3377 H 159.1739956726811 108.03218603232938 138.819729760312 H 0.0 **** 0.06
3378 H 157.72539528837137 108.52757698062584 137.9125963637607 H 0.0 **** 0.06
3379 H 157.62546535137182 108.25477560767462 139.66865379943124 H 0.0 **** 0.06
3380 H 157.8455903745057 106.8757951241696 138.56423669548997 H 0.0 **** 0.06
3381 C 142.15644483562045 59.5368955801368 148.76868052813717 C 0.0 **** -0.24
3382 H 143.1444464696544 59.16930785326839 148.491800783156 H 0.0 **** 0.06
3383 H 141.5954980484404 59.78496531748462 147.8671376881848 H 0.0 **** 0.06
3384 H 142.2605019023154 60.428712829419965 149.38817429675652 H 0.0 **** 0.06
3385 H 141.62530836619226 58.7666253692844 149.3266699397975 H 0.0 **** 0.06
3386 C 135.8425884432633 134.29745435559306 56.10584294446568 C 0.0 **** -0.24
3387 H 135.62698220244152 133.58747201065 55.306859588815854 H 0.0 **** 0.06
3388 H 135.04605655540718 135.03990523371306 56.15706807330889 H 0.0 **** 0.06
3389 H 136.791378019413 134.7959301532324 55.90278968230987 H 0.0 **** 0.06
3390 H 135.90732572673062 133.7663111316552 57.05491317196592 H 0.0 **** 0.06
3391 C 87.13100031226702 145.25719418960932 94.48241250849937 C 0.0 **** -0.24
3392 H 87.02272867401035 144.65306005468676 95.3836259027501 H 0.0 **** 0.06
3393 H 88.1835381495764 145.3077068219139 94.2031707768577 H 0.0 **** 0.06
3394 H 86.75582069868318 146.26250670694344 94.6730361024555 H 0.0 **** 0.06
3395 H 86.560046134157 144.80399695310007 93.67131511419622 H 0.0 **** 0.06
3396 C 153.308580731083 170.75956298538705 67.89518817905888 C 0.0 **** -0.24
3397 H 153.06439026212 170.40215375005664 68.89473406398122 H 0.0 **** 0.06
3398 H 152.9130930992319 171.76655573439152 67.76247232225394 H 0.0 **** 0.06
3399 H 152.86684062154495 170.0944896936564 67.15263611103852 H 0.0 **** 0.06
3400 H 154.3911314022688 170.77493316498018 67.77007160218551 H 0.0 **** 0.06
3401 C 162.13144940284067 159.81772573186646 111.91491856529031 C 0.0 **** -0.24
3402 H 161.6382186214669 159.44720959130873 112.81399785483801 H 0.0 **** 0.06
3403 H 161.58946633303168 159.47227183009844 111.03505761281288 H 0.0 **** 0.06
3404 H 163.15462679953436 159.44377152363026 111.8829088829156 H 0.0 **** 0.06
3405 H 162.14267162530254 160.90763793299277 111.93059731487072 H 0.0 **** 0.06
3406 C 79.94619355005166 51.941378575967974 145.16691425100512 C 0.0 **** -0.24
3407 H 79.23287354371575 52.67365164695826 144.78958009579907 H 0.0 **** 0.06
3408 H 80.94905828831685 52.2057290764875 144.83014650342577 H 0.0 **** 0.06
3409 H 79.68443566867911 50.952365672686824 144.79213080981427 H 0.0 **** 0.06
3410 H 79.91818836701427 51.93661744035981 146.25671212838296 H 0.0 **** 0.06
3411 C 9.959835286789513 4.6876718699724265 148.6472578486813 C 0.0 **** -0.24
3412 H 10.315279893204774 4.664071965120904 147.61683048407627 H 0.0 **** 0.06
3413 H 9.207215708591576 5.469910612098381 148.75374128806396 H 0.0 **** 0.06
3414 H 10.79648122610584 4.895334266761651 149.3154721119871 H 0.0 **** 0.06
3415 H 9.521303665569548 3.723398588520759 148.90305934569773 H 0.0 **** 0.06
3416 C 100.73468710777585 14.06974428046803 40.236293061538504 C 0.0 **** -0.24
3417 H 100.19435593243175 14.455615334183562 41.09992323684901 H 0.0 **** 0.06
3418 H 100.49160457802834 13.016104880800697 40.09617068062275 H 0.0 **** 0.06
3419 H 101.80701007651534 14.176145433172252 40.40101590241494 H 0.0 **** 0.06
3420 H 100.44670905196121 14.630626146548366 39.34668497076623 H 0.0 **** 0.06
3421 C 154.89377495942094 167.333524419143 14.483461405754241 C 0.0 **** -0.24
3422 H 155.07152292597942 166.68095162293508 15.338169406200358 H 0.0 **** 0.06
3423 H 154.77415431588673 166.72855819543835 13.584109884737181 H 0.0 **** 0.06
3424 H 155.7403153152673 168.00755021016562 14.358874160490238 H 0.0 **** 0.06
3425 H 153.98721519626602 167.91552152115037 14.653040775415064 H 0.0 **** 0.06
3426 C 48.80653513604814 113.1277059874679 7.314031991063196 C 0.0 **** -0.24
3427 H 49.241248516897585 112.97094546665367 8.300711652221828 H 0.0 **** 0.06
3428 H 48.877891422995475 112.20664659004204 6.7346493409390575 H 0.0 **** 0.06
3429 H 49.34623056884759 113.92254706637424 6.800916196569929 H 0.0 **** 0.06
3430 H 47.75865743759144 113.40995206429379 7.419861402821489 H 0.0 **** 0.06
3431 C 19.3475978971982 133.11511124220578 109.09200032170911 C 0.0 **** -0.24
3432 H 19.552954312110955 132.0657426459564 109.30284303044273 H 0.0 **** 0.06
3433 H 18.292291208728727 133.23590729646588 108.84633289920338 H 0.0 **** 0.06
3434 H 19.956684631095698 133.44186877082717 108.24903754835198 H 0.0 **** 0.06
3435 H 19.588259495489012 133.71675308806124 109.96882382885336 H 0.0 **** 0.06
3436 C 155.81118859641424 128.54299534408352 114.18028563512296 C 0.0 **** -0.24
3437 H 155.0156895685959 128.369925220153 113.45440793817544 H 0.0 **** 0.06
3438 H 155.4975376603615 129.3129119639836 114.88547912661774 H 0.0 **** 0.06
3439 H 156.71157415406884 128.86974778326748 113.66105059327829 H 0.0 **** 0.06
3440 H 156.01811629893953 127.61832039800737 114.71899291363515 H 0.0 **** 0.06
3441 C 39.48847843416905 76.54125695377058 170.00242527906448 C 0.0 **** -0.24
3442 H 38.547950127361446 75.99286702426139 169.9609846427416 H 0.0 **** 0.06
3443 H 39.537851498422924 77.24117357909212 169.1685767499293 H 0.0 **** 0.06
3444 H 40.32068216423255 75.83951996748573 169.9374672577306 H 0.0 **** 0.06
3445 H 39.54931802551198 77.0894288480608 170.9421430350581 H 0.0 **** 0.06
3446 C 155.35343317564667 95.77571493648082 116.9492449897581 C 0.0 **** -0.24
3447 H 155.60833795248618 95.28503403828591 117.88887746457961 H 0.0 **** 0.06
3448 H 156.19272560140124 96.38811716430132 116.61981048105717 H 0.0 **** 0.06
3449 H 154.4770766648066 96.40720619805461 117.09530462146857 H 0.0 **** 0.06
3450 H 155.13502528497438 95.02149632925017 116.19380364345768 H 0.0 **** 0.06
3451 C 114.17933488019459 157.53561187617794 123.70830121997584 C 0.0 **** -0.24
3452 H 115.26454751240296 157.448367753491 123.76375729159561 H 0.0 **** 0.06
3453 H 113.74613890386449 156.55427249763392 123.51463233840481 H 0.0 **** 0.06
3454 H 113.91213184449312 158.21669478177455 122.89956825616845 H 0.0 **** 0.06
3455 H 113.79720857027856 157.92385866117155 124.65147577261475 H 0.0 **** 0.06
3456 C 34.55380069022095 153.0103625894522 146.94839059186918 C 0.0 **** -0.24
3457 H 34.45944188148013 153.8927109326928 146.31539202924023 H 0.0 **** 0.06
3458 H 34.43054019287786 153.2980897807648 147.9929207729392 H 0.0 **** 0.06
3459 H 35.53918624516754 152.56626007780247 146.8075480232191 H 0.0 **** 0.06
3460 H 33.78588712662423 152.28577660772055 146.67793491856946 H 0.0 **** 0.06
3461 C 35.500374541677616 130.91520094230185 161.17379606755298 C 0.0 **** -0.24
3462 H 34.85356146268998 131.75426220043948 161.43121872174282 H 0.0 **** 0.06
3463 H 36.54040477625409 131.19086016454884 161.34981163699513 H 0.0 **** 0.06
3464 H 35.36467863187886 130.66129576023502 160.1228797425582 H 0.0 **** 0.06
3465 H 35.242234533401984 130.05507073849958 161.79165862074152 H 0.0 **** 0.06
3466 C 101.35938784662976 99.07729020997596 175.38958759022458 C 0.0 **** -0.24
3467 H 101.04698931723648 99.60058965123898 176.29294089957466 H 0.0 **** 0.06
3468 H 101.53517753435464 98.0265543993263 175.62228187390087 H 0.0 **** 0.06
3469 H 102.27805131771721 99.52437846079386 175.00947196118662 H 0.0 **** 0.06
3470 H 100.5777635003413 99.15689757687699 174.634171541064 H 0.0 **** 0.06
3471 C 163.78354426782292 138.103428925316 124.72960133653906 C 0.0 **** -0.24
3472 H 163.61455392283528 138.34727067449523 125.77796902151469 H 0.0 **** 0.06
3473 H 164.5628925494969 138.75141817767474 124.32667754045436 H 0.0 **** 0.06
3474 H 162.86095242938183 138.25114990097302 124.16837128289923 H 0.0 **** 0.06
3475 H 164.0977958606751 137.0626445791081 124.64474692534311 H 0.0 **** 0.06
3476 C 54.84876759701133 179.22087799591122 21.47743629430407 C 0.0 **** -0.24
3477 H 55.59809875863682 178.81029150593952 22.154978863743906 H 0.0 **** 0.06
3478 H 53.952164570653096 178.6013611508181 21.51104095052041 H 0.0 **** 0.06
3479 H 55.24553822645868 179.23151384627147 20.46207216284168 H 0.0 **** 0.06
3480 H 54.601489005935406 180.2369725015419 21.78248642357167 H 0.0 **** 0.06
3481 C 121.51903138739017 170.8288437416696 156.22627637664732 C 0.0 **** -0.24
3482 H 122.10935720207702 170.83670680506685 155.31018197108853 H 0.0 **** 0.06
3483 H 120.47114017845591 171.00776859773646 155.9843563774164 H 0.0 **** 0.06
3484 H 121.87724107616116 171.61016541059246 156.8967125300029 H 0.0 **** 0.06
3485 H 121.6195457072745 169.85857597108273 156.71385787410046 H 0.0 **** 0.06
3486 C 119.24146832900756 11.351654009582035 119.98052064259707 C 0.0 **** -0.24
3487 H 120.26745330073119 11.270127130149433 120.3379706996036 H 0.0 **** 0.06
3488 H 119.16407527765249 10.898517844674188 118.99242890412359 H 0.0 **** 0.06
3489 H 118.96004201171336 12.402995125613899 119.9217290975709 H 0.0 **** 0.06
3490 H 118.57504604141722 10.83516431467018 120.67114216438608 H 0.0 **** 0.06
3491 C 30.118292215296947 88.50651084169778 159.23715130234203 C 0.0 **** -0.24
3492 H 29.670613937271895 87.78030913386397 159.9146072553524 H 0.0 **** 0.06
3493 H 30.948516162976603 88.04187362162901 158.70449397069424 H 0.0 **** 0.06
3494 H 30.484452149647495 89.3589765799502 159.8087030624651 H 0.0 **** 0.06
3495 H 29.369767236503094 88.84313778986404 158.5194159519797 H 0.0 **** 0.06
3496 C 82.33719694166882 103.7764613045532 149.48048071976797 C 0.0 **** -0.24
3497 H 82.29942854676551 103.38984451809922 148.4617931401417 H 0.0 **** 0.06
3498 H 83.3775310560759 103.89994294221187 149.78301601145466 H 0.0 **** 0.06
3499 H 81.8429218478534 103.07530420257017 150.1535574125992 H 0.0 **** 0.06
3500 H 81.82952651662976 104.74023566447384 149.52296710784228 H 0.0 **** 0.06
3501 C 170.59143833066048 20.585710041395714 70.43894834106644 C 0.0 **** -0.24
3502 H 171.09418022876295 20.935543553627326 71.34027483380214 H 0.0 **** 0.06
3503 H 169.57407833108942 20.28052163513121 70.68584316947499 H 0.0 **** 0.06
3504 H 171.13575667037725 19.735786227901144 70.02616941392665 H 0.0 **** 0.06
3505 H 170.56136355804756 21.38999207825927 69.70443676445947 H 0.0 **** 0.06
3506 C 46.8392091561078 13.497326021054931 18.91071265420876 C 0.0 **** -0.24
3507 H 46.86457560668666 14.267005653180092 19.682319534905666 H 0.0 **** 0.06
3508 H 46.16988403196301 13.808481052223385 18.109360197269766 H 0.0 **** 0.06
3509 H 46.47993027454885 12.562579543184995 19.342572702232516 H 0.0 **** 0.06
3510 H 47.84201329204144 13.351032310471709 18.510782222442103 H 0.0 **** 0.06
3511 C 111.70179037586831 163.65504299017383 159.50803900954548 C 0.0 **** -0.24
3512 H 111.01691230619224 163.05926490059085 158.90402834815796 H 0.0 **** 0.06
3513 H 111.53321857689338 163.44351351118152 160.56326796854967 H 0.0 **** 0.06
3514 H 111.5268701594332 164.71369236192035 159.3157272985753 H 0.0 **** 0.06
3515 H 112.72908830693171 163.40314142153807 159.24506577892083 H 0.0 **** 0.06
3516 C 58.558385558809775 88.5843284490698 6.768812437916722 C 0.0 **** -0.24
3517 H 57.85862797287474 89.2161186096589 7.315167503680669 H 0.0 **** 0.06
3518 H 58.37724273687277 88.683006075572 5.698954342798089 H 0.0 **** 0.06
3519 H 58.418533281578235 87.54467170607779 7.06715216687482 H 0.0 **** 0.06
3520 H 59.578827718467764 88.89356327171743 6.994925209168059 H 0.0 **** 0.06
3521 C 105.86771678002033 36.74161172668404 122.93594048652149 C 0.0 **** -0.24
3522 H 106.34316581492219 37.117311182253246 122.02944640597615 H 0.0 **** 0.06
3523 H 106.63449997085247 36.438888593012734 123.64933421817035 H 0.0 **** 0.06
3524 H 105.24122992695474 35.88360646479252 122.68876524997636 H 0.0 **** 0.06
3525 H 105.25140139769839 37.52690750875395 123.3746023934183 H 0.0 **** 0.06
3526 C 38.774842289449 120.91891311995398 131.30065099136414 C 0.0 **** -0.24
3527 H 39.82439904542082 120.99753557455985 131.5863440438148 H 0.0 **** 0.06
3528 H 38.325004978099486 121.91221646943784 131.29515230874534 H 0.0 **** 0.06
3529 H 38.2496902011011 120.2859338646342 132.0161654337279 H 0.0 **** 0.06
3530 H 38.70108644149026 120.48179355463485 130.30488147840157 H 0.0 **** 0.06
3531 C 155.29894294027218 73.59218731735393 179.506237820553 C 0.0 **** -0.24
3532 H 154.4470360963818 72.96968455271931 179.23521316086888 H 0.0 **** 0.06
3533 H 155.1398346492237 74.60588822472266 179.1362183240596 H 0.0 **** 0.06
3534 H 156.20543256307036 73.18156244539348 179.06155575331462 H 0.0 **** 0.06
3535 H 155.40264071083453 73.61361855863996 180.59082521844533 H 0.0 **** 0.06
3536 C 59.88947737425636 1.0975332682393173 40.95326182547615 C 0.0 **** -0.24
3537 H 60.01938319972328 2.104101536664473 41.351598587758986 H 0.0 **** 0.06
3538 H 60.37814201298798 1.0262211641623935 39.98094971162715 H 0.0 **** 0.06
3539 H 58.82636137332277 0.8851914098040652 40.843750880591756 H 0.0 **** 0.06
3540 H 60.33580413556571 0.3769500964535837 41.63829515927648 H 0.0 **** 0.06
3541 C 31.00298877613986 162.62063780459323 54.329983767331214 C 0.0 **** -0.24
3542 H 29.946048398211317 162.57388412417976 54.59150524678569 H 0.0 **** 0.06
3543 H 31.14054479209399 163.30611564128475 53.49422194643762 H 0.0 **** 0.06
3544 H 31.351072746263526 161.62702003278488 54.04750962748267 H 0.0 **** 0.06
3545 H 31.57351002709217 162.97456638349377 55.188810544065404 H 0.0 **** 0.06
3546 C 164.36028655523836 1.315626794626752 124.54357852289843 C 0.0 **** -0.24
3547 H 163.37871788214653 1.2311035461265476 125.01000014051328 H 0.0 **** 0.06
3548 H 165.1318313626935 1.0674971203945631 125.2729951786979 H 0.0 **** 0.06
3549 H 164.50722395174148 2.33752800580055 124.19168831443778 H 0.0 **** 0.06
3550 H 164.42177361473063 0.6286949118347707 123.70066794341562 H 0.0 **** 0.06
3551 C 3.9968911831433616 83.93485201748607 127.4287460232204 C 0.0 **** -0.24
3552 H 4.11033178316552 83.35520303185623 126.51237401402416 H 0.0 **** 0.06
3553 H 3.1585936742425247 83.5410110646255 128.0048180616335 H 0.0 **** 0.06
3554 H 3.8079644930262475 84.97761525497097 127.1776407661843 H 0.0 **** 0.06
3555 H 4.910527604583535 83.86258484800967 128.01914361744724 H 0.0 **** 0.06
3556 C 32.0206480836145 172.51556522720546 54.25907973465573 C 0.0 **** -0.24
3557 H 31.585525764479726 171.6335904235429 53.78922510483771 H 0.0 **** 0.06
3558 H 33.10856693917481 172.45433496694338 54.208356699058754 H 0.0 **** 0.06
3559 H 31.70746763267779 172.56378929159328 55.301251394757045 H 0.0 **** 0.06
3560 H 31.68190969315431 173.40993202961783 53.73552295192599 H 0.0 **** 0.06
3561 C 98.00851209263205 95.50033015961463 65.65118316313168 C 0.0 **** -0.24
3562 H 97.8938493236988 94.42537191858031 65.50881879384872 H 0.0 **** 0.06
3563 H 97.94857265950641 95.73464442612726 66.71409353392787 H 0.0 **** 0.06
3564 H 97.21498293418581 96.02309721150664 65.1177860951257 H 0.0 **** 0.06
3565 H 98.97636444652535 95.8174135216671 65.2634934508933 H 0.0 **** 0.06
3566 C 30.59907936735557 7.419168528256449 0.7914551622367014 C 0.0 **** -0.24
3567 H 31.19049980695212 7.645846822862524 1.6790458332454818 H 0.0 **** 0.06
3568 H 30.010779027396026 8.295143350357705 0.5141714826376358 H 0.0 **** 0.06
3569 H 29.931063912221845 6.584394323687917 1.0038598348288588 H 0.0 **** 0.06
3570 H 31.264480762572475 7.1528340589900665 -0.029423807490360332 H 0.0 **** 0.06
3571 C 64.4279086299884 79.98092913611026 179.8326609707795 C 0.0 **** -0.24
3572 H 63.74043197760423 80.51164002382791 180.49110775115895 H 0.0 **** 0.06
3573 H 64.27211271878798 80.30748165827083 178.8043913314643 H 0.0 **** 0.06
3574 H 64.24575552512994 78.90837364200479 179.90562219927392 H 0.0 **** 0.06
3575 H 65.45481044775619 80.1959296219917 180.13084019464682 H 0.0 **** 0.06
3576 C 131.36204726899643 85.1180081858023 16.717318912162682 C 0.0 **** -0.24
3577 H 131.20160077225376 84.10594823915493 16.346898978193337 H 0.0 **** 0.06
3578 H 132.36230919190297 85.45176104279578 16.44097947666333 H 0.0 **** 0.06
3579 H 131.26172141119645 85.12819561976151 17.80257754403027 H 0.0 **** 0.06
3580 H 130.62062015462607 85.78659491149769 16.278652736772102 H 0.0 **** 0.06
3581 C 61.953108593892026 178.11007721031618 83.43473517368932 C 0.0 **** -0.24
3582 H 62.95953461684971 177.71329540841162 83.29817292828052 H 0.0 **** 0.06
3583 H 61.32494689683158 177.35192369186038 83.90423547224226 H 0.0 **** 0.06
3584 H 61.53511717051248 178.38079823430937 82.46580089873115 H 0.0 **** 0.06
3585 H 61.99518355686301 178.99279356784157 84.07323020579713 H 0.0 **** 0.06
3586 C 107.35641373363632 133.90837931784375 120.03118115123151 C 0.0 **** -0.24
3587 H 108.15963048345128 134.19674073832687 120.70891037109685 H 0.0 **** 0.06
3588 H 107.40448902104907 134.520046108347 119.12989824138661 H 0.0 **** 0.06
3589 H 106.39510746573853 134.0592261941443 120.52312409657291 H 0.0 **** 0.06
3590 H 107.46678265224796 132.85718918779332 119.76445773459751 H 0.0 **** 0.06
3591 C 17.432457367867705 0.31895308807119704 96.9082387827036 C 0.0 **** -0.24
3592 H 17.54269616666336 -0.6879405236940102 97.31260008090736 H 0.0 **** 0.06
3593 H 17.273897900745865 0.2622279952264819 95.83170522437076 H 0.0 **** 0.06
3594 H 18.336697804592653 0.8926050005309492 97.11355098005559 H 0.0 **** 0.06
3595 H 16.577916269817422 0.8069726342387185 97.3769175602986 H 0.0 **** 0.06
3596 C 167.88268681613 108.4913445418593 11.54587870466014 C 0.0 **** -0.24
3597 H 167.8111732222212 108.00703359493237 10.571800635091336 H 0.0 **** 0.06
3598 H 167.1703822919094 109.31486367995718 11.595495790819683 H 0.0 **** 0.06
3599 H 168.89339031255213 108.8743298150902 11.68780858873933 H 0.0 **** 0.06
3600 H 167.65637975604818 107.76734884686307 12.329056032890634 H 0.0 **** 0.06
3601 C 173.29723123139183 67.01351993674831 94.06008979902077 C 0.0 **** -0.24
3602 H 172.97162065277098 67.02012062792977 95.10012467160874 H 0.0 **** 0.06
3603 H 172.74877249766558 67.77280108425657 93.50200509554725 H 0.0 **** 0.06
3604 H 173.10477006657388 66.0324161872224 93.62531570931327 H 0.0 **** 0.06
3605 H 174.36525999381948 67.22793050230263 94.01260237695595 H 0.0 **** 0.06
3606 C 75.10354209422314 93.23148209183314 120.48824318495168 C 0.0 **** -0.24
3607 H 75.94091930780678 93.80115367531612 120.08458978633696 H 0.0 **** 0.06
3608 H 74.83878785791484 92.43314657946335 119.79330432186488 H 0.0 **** 0.06
3609 H 74.2473653168285 93.89253890425441 120.62427108873457 H 0.0 **** 0.06
3610 H 75.38627441946846 92.79958605243398 121.44733210818806 H 0.0 **** 0.06
3611 C 19.626489230968524 17.994510843174368 107.03373222372319 C 0.0 **** -0.24
3612 H 19.413237294328617 18.600085215201915 107.91372234699257 H 0.0 **** 0.06
3613 H 20.66258830058188 18.144649531336313 106.73162225038065 H 0.0 **** 0.06
3614 H 18.963980137919705 18.290341838755893 106.22013582893747 H 0.0 **** 0.06
3615 H 19.464883468388933 16.942654941136396 107.26890470337018 H 0.0 **** 0.06
3616 C 0.8867731739709797 33.8959215302075 137.67376679484454 C 0.0 **** -0.24
3617 H 0.5113026078713574 34.53560317116201 136.87463374440563 H 0.0 **** 0.06
3618 H 0.7070021506963258 32.85198798376457 137.41783617730277 H 0.0 **** 0.06
3619 H 0.37047925719502217 34.13673394524517 138.60309415260969 H 0.0 **** 0.06
3620 H 1.956390391945213 34.06152338781112 137.7987002593684 H 0.0 **** 0.06
3621 C 105.74812200293373 120.18310869907408 36.9278647793801 C 0.0 **** -0.24
3622 H 104.87603570300156 119.52809176335107 36.90951518813334 H 0.0 **** 0.06
3623 H 106.56024328238716 119.71930474566868 36.367544071081454 H 0.0 **** 0.06
3624 H 106.0616198793454 120.34285527909212 37.95921702749328 H 0.0 **** 0.06
3625 H 105.49246819589582 121.1405580404387 36.473491295005886 H 0.0 **** 0.06
3626 C 164.85296029844946 19.16631027039623 128.8743756145829 C 0.0 **** -0.24
3627 H 165.77229464466913 19.652700374190665 128.54767942637665 H 0.0 **** 0.06
3628 H 164.71722211921156 19.326545722357537 129.94427473446166 H 0.0 **** 0.06
3629 H 164.91683814322482 18.09629553280231 128.67240906407528 H 0.0 **** 0.06
3630 H 164.0067639102554 19.58863081662306 128.33266408069926 H 0.0 **** 0.06
3631 C 12.91623129551698 28.54516956289382 55.34517640923693 C 0.0 **** -0.24
3632 H 12.314097582131012 28.0761882444655 54.56642555136938 H 0.0 **** 0.06
3633 H 12.276357875283821 28.815537999677645 56.18520038481955 H 0.0 **** 0.06
3634 H 13.390403177659664 29.44300376217143 54.94595943212332 H 0.0 **** 0.06
3635 H 13.683642167585617 27.847527579974212 55.68081249878122 H 0.0 **** 0.06
3636 C 167.6255528324512 134.62855488649575 56.50708276640751 C 0.0 **** -0.24
3637 H 167.6761241844686 134.81564315000412 55.43480721214826 H 0.0 **** 0.06
3638 H 168.31196219817735 135.29826895930603 57.02504763306712 H 0.0 **** 0.06
3639 H 167.9041215621341 133.59464867064054 56.70885427684749 H 0.0 **** 0.06
3640 H 166.60909591864376 134.8066717835602 56.85815551964629 H 0.0 **** 0.06
3641 C 159.43229525078695 23.5996078286189 153.84746786108636 C 0.0 **** -0.24
3642 H 159.4952323257592 22.536322887274082 154.07839732098924 H 0.0 **** 0.06
3643 H 159.26959957408906 24.161453714753975 154.7679311749419 H 0.0 **** 0.06
3644 H 158.602386790003 23.774138751857777 153.16261512509462 H 0.0 **** 0.06
3645 H 160.36213817936968 23.92592010182028 153.38219828500013 H 0.0 **** 0.06
3646 C 100.59242786818938 15.68540680205129 19.991476569307736 C 0.0 **** -0.24
3647 H 99.98447231778981 14.785842634644837 19.894622435387447 H 0.0 **** 0.06
3648 H 100.59436909246547 16.22473356665813 19.04401614948665 H 0.0 **** 0.06
3649 H 101.61276369885466 15.406733878698788 20.254336895681007 H 0.0 **** 0.06
3650 H 100.17722684250715 16.322130991738163 20.772261918354047 H 0.0 **** 0.06
3651 C 89.42414391547548 57.463261807695915 118.73779312513248 C 0.0 **** -0.24
3652 H 89.41895457755037 58.00827910243511 117.79483950155368 H 0.0 **** 0.06
3653 H 88.78541481305201 57.976162440053116 119.45848827298151 H 0.0 **** 0.06
3654 H 90.44256848736428 57.41497249424356 119.12419953657302 H 0.0 **** 0.06
3655 H 89.04864232996589 56.45205817789497 118.57488152233621 H 0.0 **** 0.06
3656 C 4.466638559794724 113.8531159727127 77.39759570771014 C 0.0 **** -0.24
3657 H 4.692197496230349 113.15817327585056 76.58942917217797 H 0.0 **** 0.06
3658 H 4.796532205170152 114.85352014655602 77.11850428757845 H 0.0 **** 0.06
3659 H 4.985830049307289 113.53844120277994 78.30321227387611 H 0.0 **** 0.06
3660 H 3.3912559425212265 113.86169975750003 77.57899565556687 H 0.0 **** 0.06
3661 C 62.78615077366646 88.3434447453575 125.37305618571234 C 0.0 **** -0.24
3662 H 62.68597800742316 89.20420904823452 126.03321189593088 H 0.0 **** 0.06
3663 H 61.805894636316566 87.89781740717602 125.2052690216771 H 0.0 **** 0.06
3664 H 63.44582824831957 87.60749570412732 125.83371660689649 H 0.0 **** 0.06
3665 H 63.20911540586832 88.66398308353443 124.42019129823133 H 0.0 **** 0.06
3666 C 165.65175147725142 131.18416376687316 171.01419950566716 C 0.0 **** -0.24
3667 H 165.40513028332165 132.17299404024897 170.62669588400544 H 0.0 **** 0.06
3668 H 165.12244140515642 130.42548635492636 170.43820924433444 H 0.0 **** 0.06
3669 H 165.35265955117313 131.12039472028584 172.06113786524466 H 0.0 **** 0.06
3670 H 166.72617014163046 131.02047994154304 170.93306693828706 H 0.0 **** 0.06
3671 C 91.74601521750573 10.874220909867404 18.325714224451872 C 0.0 **** -0.24
3672 H 92.4157781236275 10.475790248654448 19.089256676437913 H 0.0 **** 0.06
3673 H 91.69179700203223 11.959202482735463 18.421624417104113 H 0.0 **** 0.06
3674 H 90.75192699998844 10.446806327034665 18.45674762655233 H 0.0 **** 0.06
3675 H 92.12728583584958 10.61507646842199 17.338154489677606 H 0.0 **** 0.06
3676 C 38.83544799266576 10.071754692453567 72.9783325971359 C 0.0 **** -0.24
3677 H 38.76419900808216 11.023591809789451 73.5036867842393 H 0.0 **** 0.06
3678 H 38.675925692251695 9.254596224843283 73.68222182945898 H 0.0 **** 0.06
3679 H 39.82551725915704 9.977896857546739 72.53024448047972 H 0.0 **** 0.06
3680 H 38.07780785170286 10.031321826948158 72.19541626955153 H 0.0 **** 0.06
3681 C 75.53904952170039 97.46972816174815 13.138073547461367 C 0.0 **** -0.24
3682 H 74.61616986525502 98.00543299218828 12.918064882676177 H 0.0 **** 0.06
3683 H 75.73592492198333 96.74617420926239 12.34782796214462 H 0.0 **** 0.06
3684 H 75.4391375453752 96.95026131625553 14.090979707909511 H 0.0 **** 0.06
3685 H 76.36466969654303 98.17864117670581 13.196588636802979 H 0.0 **** 0.06
3686 C 80.02423944822584 20.09629651230452 101.16022169373383 C 0.0 **** -0.24
3687 H 79.25229154738531 20.229139473302737 100.40328608895175 H 0.0 **** 0.06
3688 H 79.59497570708606 19.60625206687849 102.03413098303236 H 0.0 **** 0.06
3689 H 80.42284011231476 21.068719082475923 101.44707215293352 H 0.0 **** 0.06
3690 H 80.82666759598942 19.479072056728974 100.75542122730633 H 0.0 **** 0.06
3691 C 93.32097547473046 3.804996625240335 78.95122155642343 C 0.0 **** -0.24
3692 H 92.38648319128617 3.879732911453459 79.50726024339019 H 0.0 **** 0.06
3693 H 93.9422119621322 3.0237246782457987 79.38895061699031 H 0.0 **** 0.06
3694 H 93.84805223635897 4.757605170927434 78.99641436353147 H 0.0 **** 0.06
3695 H 93.10562135085723 3.558780882798999 77.91146784887337 H 0.0 **** 0.06
3696 C 92.04825997273473 13.594421712312226 36.46444835734337 C 0.0 **** -0.24
3697 H 93.12698969951641 13.746359761597404 36.43006282852272 H 0.0 **** 0.06
3698 H 91.57550031714585 14.16099705333022 35.662199608840126 H 0.0 **** 0.06
3699 H 91.6636016444997 13.934722582210554 37.42601773009616 H 0.0 **** 0.06
3700 H 91.82737994892413 12.533910025610083 36.34090340055059 H 0.0 **** 0.06
3701 C 4.421844813230408 77.44658699080907 143.87465094403916 C 0.0 **** -0.24
3702 H 4.066486685951816 77.92993994799565 144.7851293362125 H 0.0 **** 0.06
3703 H 3.7996833226128786 76.5790920690306 143.65726885305105 H 0.0 **** 0.06
3704 H 5.455613457662906 77.12816670560227 144.01312947391398 H 0.0 **** 0.06
3705 H 4.366845389670701 78.15107067830479 143.04501177617635 H 0.0 **** 0.06
3706 C 66.09717777192981 145.22916971151915 5.983418594775898 C 0.0 **** -0.24
3707 H 65.2778348176886 145.92595633908647 6.160030826318305 H 0.0 **** 0.06
3708 H 66.9407888706783 145.49301595652082 6.622097593614605 H 0.0 **** 0.06
3709 H 66.40172168436334 145.28407792106944 4.937600976064886 H 0.0 **** 0.06
3710 H 65.76857393887616 144.2158549154582 6.213924568057394 H 0.0 **** 0.06
3711 C 121.01565733470436 160.47294057092193 133.73321437678067 C 0.0 **** -0.24
3712 H 121.08662306055133 161.38651463202024 134.32422764637084 H 0.0 **** 0.06
3713 H 120.04056332187365 160.01159913585403 133.89418377005768 H 0.0 **** 0.06
3714 H 121.79982394494009 159.78084657562854 134.03787313398584 H 0.0 **** 0.06
3715 H 121.13383955958948 160.7141541171067 132.67664570431862 H 0.0 **** 0.06
3716 C 112.7465333498261 92.82554639923018 80.698746382424 C 0.0 **** -0.24
3717 H 111.74708144332546 93.04958532337656 80.32731027138257 H 0.0 **** 0.06
3718 H 113.08756137301948 93.64119141079624 81.33667543514997 H 0.0 **** 0.06
3719 H 113.4298550592428 92.71182560433294 79.85769384903153 H 0.0 **** 0.06
3720 H 112.7207303849858 91.90013382089097 81.2742428061702 H 0.0 **** 0.06
3721 C 33.102588095939666 28.74686873780456 45.46895568120749 C 0.0 **** -0.24
3722 H 32.833143078099 29.40487935210247 44.64315621235828 H 0.0 **** 0.06
3723 H 33.014505148940145 27.70858227729731 45.15001843162506 H 0.0 **** 0.06
3724 H 32.43251897753879 28.92696017451854 46.310481587533545 H 0.0 **** 0.06
3725 H 34.12959014638034 28.948490013534965 45.774058978366966 H 0.0 **** 0.06
3726 C 67.216974229654 58.44790829311603 95.76442915741843 C 0.0 **** -0.24
3727 H 66.21268957427233 58.8697113495235 95.80306687513253 H 0.0 **** 0.06
3728 H 67.26266937764944 57.68913511444126 94.98345632105922 H 0.0 **** 0.06
3729 H 67.45803700494045 57.996599320116616 96.72601236819231 H 0.0 **** 0.06
3730 H 67.93442436036355 59.23884764807349 95.54422328226339 H 0.0 **** 0.06
3731 C 49.21844860309713 71.02701521669074 23.849938832393278 C 0.0 **** -0.24
3732 H 48.53150347741533 71.70216045568483 23.337907868499443 H 0.0 **** 0.06
3733 H 48.93496050241305 69.99500733187188 23.642129790883374 H 0.0 **** 0.06
3734 H 49.17066944666898 71.20769271713031 24.92414140847761 H 0.0 **** 0.06
3735 H 50.233430296266974 71.20499307132705 23.496167179729994 H 0.0 **** 0.06
3736 C 42.490176150802256 131.1444332159765 128.57578587872376 C 0.0 **** -0.24
3737 H 42.604801038843874 130.40128646389053 129.36519034702786 H 0.0 **** 0.06
3738 H 42.22884678935446 132.1062769492503 129.01791932125536 H 0.0 **** 0.06
3739 H 41.70065744087606 130.83125163617615 127.89364232024946 H 0.0 **** 0.06
3740 H 43.42836973382171 131.2389656215003 128.02744763390768 H 0.0 **** 0.06
3741 C 174.9983375259157 77.76435289681362 15.616042836680094 C 0.0 **** -0.24
3742 H 175.28480399301054 77.97512584722193 16.64628119954841 H 0.0 **** 0.06
3743 H 174.4472561126234 78.61428618449435 15.212105869045502 H 0.0 **** 0.06
3744 H 174.3675639786298 76.87663552418138 15.58873119013316 H 0.0 **** 0.06
3745 H 175.89267985847255 77.59355372040542 15.017386190794412 H 0.0 **** 0.06
3746 C 102.04513099360751 46.5213616579652 51.480700305502 C 0.0 **** -0.24
3747 H 102.56763844603806 45.86274649780529 50.78638091566842 H 0.0 **** 0.06
3748 H 101.5883379405869 45.92578099601076 52.27115849381438 H 0.0 **** 0.06
3749 H 101.27182808901343 47.07225417660959 50.94568871276543 H 0.0 **** 0.06
3750 H 102.755588518706 47.22327413320619 51.91788945999329 H 0.0 **** 0.06
3751 C 20.332089449026284 140.8246160519438 132.7760055332438 C 0.0 **** -0.24
3752 H 20.88587542975202 141.0708398095415 131.87001363892597 H 0.0 **** 0.06
3753 H 21.03291261519462 140.62528908087853 133.5870776798012 H 0.0 **** 0.06
3754 H 19.72044531910666 139.94051608326953 132.59801101036823 H 0.0 **** 0.06
3755 H 19.690802843828635 141.66262750906998 133.0476829736437 H 0.0 **** 0.06
3756 C 30.378415453217087 131.88077447178637 170.13790862343373 C 0.0 **** -0.24
3757 H 29.642695187255356 131.1044452546684 170.35117613982206 H 0.0 **** 0.06
3758 H 31.199166819556524 131.80708815828694 170.8515842446552 H 0.0 **** 0.06
3759 H 29.907678094750906 132.85957079281332 170.22366663784027 H 0.0 **** 0.06
3760 H 30.76168566536458 131.74860594422995 169.12646818025857 H 0.0 **** 0.06
3761 C 8.562125789780637 48.86109874155366 142.18752761795702 C 0.0 **** -0.24
3762 H 9.465289338978671 48.90042326082619 141.57947456019053 H 0.0 **** 0.06
3763 H 8.391621981464993 49.83339111586815 142.6492486823131 H 0.0 **** 0.06
3764 H 8.680713825239025 48.10599613894581 142.96488101954907 H 0.0 **** 0.06
3765 H 7.710158248346005 48.60295235474655 141.5581850038986 H 0.0 **** 0.06
3766 C 78.55379667364116 35.81935323980002 183.0572901342427 C 0.0 **** -0.24
3767 H 78.02830293296083 36.772590371134726 183.1144010989574 H 0.0 **** 0.06
3768 H 78.4442576396459 35.40371745536197 182.05458603582068 H 0.0 **** 0.06
3769 H 78.1311267023656 35.12788408451999 183.78613227293945 H 0.0 **** 0.06
3770 H 79.61113050089642 35.974434682553465 183.27341579730805 H 0.0 **** 0.06
3771 C 103.79727760036697 106.40358376806746 123.55052223725023 C 0.0 **** -0.24
3772 H 103.92355868227013 105.46649288376189 123.0079864004005 H 0.0 **** 0.06
3773 H 104.1062515713155 106.26854733142692 124.58692158228597 H 0.0 **** 0.06
3774 H 102.74971573045765 106.70376597935162 123.51908752097738 H 0.0 **** 0.06
3775 H 104.41005258172565 107.176494139991 123.08613150381696 H 0.0 **** 0.06
3776 C 35.405586627016234 67.53904142837519 73.53070760360688 C 0.0 **** -0.24
3777 H 34.390232320492814 67.32260033544736 73.86511048362564 H 0.0 **** 0.06
3778 H 35.88953711281346 66.61384117950759 73.2171907782858 H 0.0 **** 0.06
3779 H 35.969330379903866 67.9853027451486 74.3496454336192 H 0.0 **** 0.06
3780 H 35.37068883900716 68.23430931916087 72.69273980254945 H 0.0 **** 0.06
3781 C 79.15923001614556 122.04259404672125 1.9189305276002955 C 0.0 **** -0.24
3782 H 79.13936670539408 122.58069216341518 0.9708787121162814 H 0.0 **** 0.06
3783 H 80.06253485562371 122.30933703074619 2.4683119353374394 H 0.0 **** 0.06
3784 H 79.15374583792135 120.96955310502527 1.7268148574532773 H 0.0 **** 0.06
3785 H 78.28238981888404 122.31207669877325 2.5079540753037577 H 0.0 **** 0.06
3786 C 30.060131902340515 164.1923282268278 116.14231517406063 C 0.0 **** -0.24
3787 H 29.699256587294656 165.16811230246054 115.81804245855261 H 0.0 **** 0.06
3788 H 31.021009051473982 164.30884262330022 116.64399422862903 H 0.0 **** 0.06
3789 H 30.1778556843239 163.54194273481414 115.27533928271572 H 0.0 **** 0.06
3790 H 29.34115621246997 163.7509535593282 116.83295599157606 H 0.0 **** 0.06
3791 C 35.53764069007366 7.21548865044312 28.198587482030575 C 0.0 **** -0.24
3792 H 36.52725727977378 6.763247564452627 28.267073830371146 H 0.0 **** 0.06
3793 H 35.52952981062532 8.156950866083577 28.749569805019235 H 0.0 **** 0.06
3794 H 34.79853662307073 6.53800270776901 28.627094609249184 H 0.0 **** 0.06
3795 H 35.29584669394592 7.4039874692997785 27.152750872539855 H 0.0 **** 0.06
3796 C 97.87915020185521 145.9867681166757 86.41459210791612 C 0.0 **** -0.24
3797 H 98.13978948557558 146.4261637772439 87.37776083412245 H 0.0 **** 0.06
3798 H 98.38903441306202 146.52893553120018 85.61787951026491 H 0.0 **** 0.06
3799 H 96.80097710217355 146.05198436312264 86.26591800408602 H 0.0 **** 0.06
3800 H 98.1861895931306 144.94125399590993 86.39697426583831 H 0.0 **** 0.06
3801 C 27.255560717982178 66.49457142260714 163.38981870941836 C 0.0 **** -0.24
3802 H 28.094999575122472 66.86653514033958 162.80291348242423 H 0.0 **** 0.06
3803 H 26.548989907463977 67.30645349453034 163.5679214999476 H 0.0 **** 0.06
3804 H 27.62087911957346 66.11433725295612 164.34414298419506 H 0.0 **** 0.06
3805 H 26.758346339637285 65.69242379214067 162.84567959970542 H 0.0 **** 0.06
3806 C 144.51619002844944 111.30663759435214 126.71691235630097 C 0.0 **** -0.24
3807 H 144.8357704794248 110.94317361106914 125.74071124520988 H 0.0 **** 0.06
3808 H 145.37320289247077 111.33953933040675 127.38970786200194 H 0.0 **** 0.06
3809 H 143.75881511416 110.63793991764408 127.12457642321091 H 0.0 **** 0.06
3810 H 144.09850750511316 112.30778070342615 126.61234592931221 H 0.0 **** 0.06
3811 C 120.90684235399944 80.40676150150425 109.30194067453165 C 0.0 **** -0.24
3812 H 121.06318083935729 79.77213078283236 108.42896099462497 H 0.0 **** 0.06
3813 H 120.37790620589159 81.31130483796885 109.00150720415083 H 0.0 **** 0.06
3814 H 121.87194689476242 80.67580215532556 109.73236225762601 H 0.0 **** 0.06
3815 H 120.31624777605272 79.86743352596487 110.04189859264817 H 0.0 **** 0.06
3816 C 99.50784295196003 31.652354321170037 177.60476689184674 C 0.0 **** -0.24
3817 H 99.79837852170697 30.601776568661336 177.58015292434038 H 0.0 **** 0.06
3818 H 99.0991375309169 31.93835160401909 176.6361675064059 H 0.0 **** 0.06
3819 H 100.38184186616697 32.2652263008751 177.82605902102495 H 0.0 **** 0.06
3820 H 98.75440790910885 31.802301353716132 178.37709574067395 H 0.0 **** 0.06
3821 C 114.04118539026449 73.73931394616939 34.10136466619561 C 0.0 **** -0.24
3822 H 113.85468183510947 74.75179684468493 33.744168428350434 H 0.0 **** 0.06
3823 H 113.11057331302068 73.17083519517956 34.085570108445594 H 0.0 **** 0.06
3824 H 114.42483175558307 73.77983289207984 35.12081012548039 H 0.0 **** 0.06
3825 H 114.77429417977062 73.25523241864956 33.45620426866482 H 0.0 **** 0.06
3826 C 108.38362057367715 14.749807140972564 156.54320794039901 C 0.0 **** -0.24
3827 H 108.65460815328896 14.732909408972006 157.59915849682653 H 0.0 **** 0.06
3828 H 108.60937171849895 13.78201781461209 156.09535461076902 H 0.0 **** 0.06
3829 H 108.95384344103735 15.527755154795898 156.03445538821956 H 0.0 **** 0.06
3830 H 107.31833552617559 14.957492937036676 156.44500036048115 H 0.0 **** 0.06
3831 C 47.835048152635025 52.37445833142699 129.21069213447925 C 0.0 **** -0.24
3832 H 48.053891687495764 51.32646350006385 129.00426122317418 H 0.0 **** 0.06
3833 H 47.41147290401918 52.46647403511007 130.21162795815616 H 0.0 **** 0.06
3834 H 47.12017545867738 52.74635856782827 128.47762830707887 H 0.0 **** 0.06
3835 H 48.754721293652864 52.95615172465526 129.1498031573542 H 0.0 **** 0.06
3836 C 45.77973627183201 135.3010183192447 108.19954487155933 C 0.0 **** -0.24
3837 H 46.51313114965262 135.56792095389022 107.43939076133434 H 0.0 **** 0.06
3838 H 45.7177043238367 136.0987677287169 108.94010296825427 H 0.0 **** 0.06
3839 H 46.08332554860533 134.375145250458 108.6881387473605 H 0.0 **** 0.06
3840 H 44.80552128155398 135.16286890728776 107.7315766750035 H 0.0 **** 0.06
3841 C 6.486308167230163 64.63421170868628 112.28739201267506 C 0.0 **** -0.24
3842 H 6.474665213496223 64.69441991580408 111.19934340875427 H 0.0 **** 0.06
3843 H 6.3932041341805075 63.592447095943754 112.5942983414841 H 0.0 **** 0.06
3844 H 5.65232830769412 65.20820334198908 112.69200241385947 H 0.0 **** 0.06
3845 H 7.424038591732 65.04185283570052 112.66388730467806 H 0.0 **** 0.06
3846 C 142.15255366557818 82.21873077538422 87.5196454734885 C 0.0 **** -0.24
3847 H 142.9614348650282 82.29114864318511 86.79119419025848 H 0.0 **** 0.06
3848 H 142.4486106443773 81.54646401613294 88.32424226997348 H 0.0 **** 0.06
3849 H 141.258757079262 81.83156892346585 87.03111736863484 H 0.0 **** 0.06
3850 H 141.94414194831745 83.20678754918393 87.92969269560446 H 0.0 **** 0.06
3851 C 128.87917034871714 51.09709966082842 160.1448731143471 C 0.0 **** -0.24
3852 H 128.5246828026767 50.6016236103049 159.2406682469875 H 0.0 **** 0.06
3853 H 128.7227819219421 50.442445784299025 161.0023865728259 H 0.0 **** 0.06
3854 H 128.32695635397187 52.025709504491005 160.28992079705893 H 0.0 **** 0.06
3855 H 129.94114545025275 51.319168482709614 160.04440589094142 H 0.0 **** 0.06
3856 C 1.4270922747210193 35.80381156185159 105.6721585303112 C 0.0 **** -0.24
3857 H 1.05249276965435 34.79844014287596 105.47765684823428 H 0.0 **** 0.06
3858 H 1.753590077763306 35.87585515876064 106.70942621920268 H 0.0 **** 0.06
3859 H 0.6337695608484637 36.52775758127018 105.48825481770156 H 0.0 **** 0.06
3860 H 2.26837524201477 36.01077965676468 105.01044065328055 H 0.0 **** 0.06
3861 C 95.71499986403819 113.47569497808102 167.54581382905258 C 0.0 **** -0.24
3862 H 95.14657342886562 114.3190193776244 167.154315814835 H 0.0 **** 0.06
3863 H 96.33787189431405 113.05906480884734 166.75366793180888 H 0.0 **** 0.06
3864 H 95.02761652677543 112.71159399955211 167.90802673840716 H 0.0 **** 0.06
3865 H 96.34803751919321 113.81412430100825 168.36627302470248 H 0.0 **** 0.06
3866 C 17.670815644275358 4.294047474943611 79.45379888138717 C 0.0 **** -0.24
3867 H 18.164486304489074 3.662171548347743 80.19222454421356 H 0.0 **** 0.06
3868 H 16.949447967561206 3.7005665914615236 78.89196573645256 H 0.0 **** 0.06
3869 H 18.41568723075609 4.70404670315164 78.77174733174428 H 0.0 **** 0.06
3870 H 17.1537434656638 5.109572236806457 79.96023852089513 H 0.0 **** 0.06
3871 C 156.7968193879257 74.25082525622788 105.34716054595931 C 0.0 **** -0.24
3872 H 156.34628654956364 73.90146909578674 104.41850733768295 H 0.0 **** 0.06
3873 H 157.62603459758463 74.92178137745456 105.117904274613 H 0.0 **** 0.06
3874 H 157.16602520170613 73.39708839264084 105.91535399550007 H 0.0 **** 0.06
3875 H 156.0501290186465 74.78440361895692 105.93475817373975 H 0.0 **** 0.06
3876 C 165.8880248964108 118.14344991166456 174.44213809559363 C 0.0 **** -0.24
3877 H 164.83517905101021 118.42433910471942 174.4658919678443 H 0.0 **** 0.06
3878 H 166.01650370207076 117.17633627490159 174.92809567609936 H 0.0 **** 0.06
3879 H 166.4766466781689 118.89531035364752 174.96764131406826 H 0.0 **** 0.06
3880 H 166.2224337440429 118.07765263667278 173.40735706779458 H 0.0 **** 0.06
3881 C 71.29475519494999 175.46201298195845 182.74804037472967 C 0.0 **** -0.24
3882 H 71.14760277842625 174.58715453819707 182.11423973687835 H 0.0 **** 0.06
3883 H 71.29217737036278 176.36215589873112 182.1313787920393 H 0.0 **** 0.06
3884 H 72.25015222907153 175.37881615100673 183.26529962982409 H 0.0 **** 0.06
3885 H 70.48915798375091 175.5196441732964 183.47902608347366 H 0.0 **** 0.06
3886 C 7.151266437714725 41.89091822918709 48.80176801544944 C 0.0 **** -0.24
3887 H 6.7420893434590425 42.44728955134353 47.9587826014493 H 0.0 **** 0.06
3888 H 8.191033535449975 41.6327211594097 48.59733207129858 H 0.0 **** 0.06
3889 H 6.572304365623438 40.97904336899384 48.949489145739236 H 0.0 **** 0.06
3890 H 7.098725538640963 42.504490880763925 49.701080761799105 H 0.0 **** 0.06
3891 C 83.45498648190843 160.86088289014802 125.38536851778444 C 0.0 **** -0.24
3892 H 83.8644289364915 161.05708036307675 124.39451192520683 H 0.0 **** 0.06
3893 H 82.76394960301704 160.0199021825795 125.33243618467979 H 0.0 **** 0.06
3894 H 82.9266808300879 161.7452308580361 125.74106665274813 H 0.0 **** 0.06
3895 H 84.26677017166186 160.62224910055107 126.07269415021493 H 0.0 **** 0.06
3896 C 28.151667814393875 98.35827207736641 180.39691099241912 C 0.0 **** -0.24
3897 H 28.346282666675336 97.71669846324438 179.53830532892147 H 0.0 **** 0.06
3898 H 29.01239394998123 98.3407810025313 181.06615382447333 H 0.0 **** 0.06
3899 H 27.270446803749167 97.99569285132368 180.92819834621199 H 0.0 **** 0.06
3900 H 27.975966103039013 99.37850966359129 180.05570791313124 H 0.0 **** 0.06
3901 C 36.43014876532533 116.8267632476593 102.16882834536882 C 0.0 **** -0.24
3902 H 35.977242902341175 117.81700942880809 102.10402720410146 H 0.0 **** 0.06
3903 H 36.6221436207822 116.5829425102466 103.21409759603536 H 0.0 **** 0.06
3904 H 37.36799650769257 116.81936546586729 101.61489404645754 H 0.0 **** 0.06
3905 H 35.75034621302632 116.08940477349074 101.74226026644864 H 0.0 **** 0.06
3906 C 62.401306489764295 113.55498182544831 52.235990271615094 C 0.0 **** -0.24
3907 H 63.44022509348446 113.33535033094886 51.989100588514034 H 0.0 **** 0.06
3908 H 62.10205821506395 112.96413312810576 53.10196871345623 H 0.0 **** 0.06
3909 H 61.76578094244019 113.30480722725757 51.386467868155805 H 0.0 **** 0.06
3910 H 62.299274169039904 114.61527378737561 52.467061088199685 H 0.0 **** 0.06
3911 C 170.53571983351293 70.60399418356687 127.49743863528487 C 0.0 **** -0.24
3912 H 170.5038284479969 70.03308179657638 126.56969926554423 H 0.0 **** 0.06
3913 H 170.53868431033476 71.66979775906721 127.26691241567774 H 0.0 **** 0.06
3914 H 171.44098852615593 70.34879666497477 128.0493672652034 H 0.0 **** 0.06
3915 H 169.66110921251064 70.36424408694872 128.10236137604102 H 0.0 **** 0.06
3916 C 112.36595825027227 96.29305919607783 180.81540379505265 C 0.0 **** -0.24
3917 H 112.75652819001773 96.97000041178875 181.57556633634943 H 0.0 **** 0.06
3918 H 113.03900387381994 95.44245111326047 180.70527271443714 H 0.0 **** 0.06
3919 H 112.28963207678034 96.82209748754882 179.86485069648396 H 0.0 **** 0.06
3920 H 111.37918309422942 95.94138044152503 181.11560904818333 H 0.0 **** 0.06
3921 C 114.06504645548925 86.64151474042829 81.39379858121524 C 0.0 **** -0.24
3922 H 114.01874021947897 86.05763777885745 82.31322111558107 H 0.0 **** 0.06
3923 H 113.7620327051723 86.01687310346274 80.55283372865004 H 0.0 **** 0.06
3924 H 115.08500079153767 86.99308202089607 81.2371844978272 H 0.0 **** 0.06
3925 H 113.39358282111554 87.49623199171306 81.47252188743316 H 0.0 **** 0.06
3926 C 178.08855327180322 100.73733342491953 26.359104486333536 C 0.0 **** -0.24
3927 H 178.7704769425859 99.9409090037493 26.0602004457337 H 0.0 **** 0.06
3928 H 178.2524977393951 100.98114295272462 27.409282812114725 H 0.0 **** 0.06
3929 H 177.05977432138252 100.40649496775085 26.21853728807048 H 0.0 **** 0.06
3930 H 178.2720056252419 101.62150800515464 25.747965444148235 H 0.0 **** 0.06
3931 C 64.27955153896154 131.5679038840675 77.1325859068891 C 0.0 **** -0.24
3932 H 63.190840548480395 131.5857601418212 77.07233705113262 H 0.0 **** 0.06
3933 H 64.60164714152467 132.1063696860441 78.02436580540439 H 0.0 **** 0.06
3934 H 64.69996661089452 132.04507250721656 76.24756860450476 H 0.0 **** 0.06
3935 H 64.62295345252281 130.53501156305458 77.18697279373224 H 0.0 **** 0.06
3936 C 1.2224091167928748 109.09419136647664 132.14928566135097 C 0.0 **** -0.24
3937 H 1.934300154206369 108.76184513459724 131.39321786314161 H 0.0 **** 0.06
3938 H 1.67621017304225 109.87963281242595 132.75309414353018 H 0.0 **** 0.06
3939 H 0.9535456126633619 108.25363002570738 132.78887334639774 H 0.0 **** 0.06
3940 H 0.3281070256795715 109.480244810967 131.66116903023027 H 0.0 **** 0.06
3941 C 117.29194760604042 32.72094624842151 174.91427739665335 C 0.0 **** -0.24
3942 H 116.3178205986676 32.238378943184216 174.8348939443216 H 0.0 **** 0.06
3943 H 117.36066562484211 33.24421039350614 175.86779500122248 H 0.0 **** 0.06
3944 H 117.41086964433589 33.432946003143655 174.09759308784726 H 0.0 **** 0.06
3945 H 118.07614750198331 31.966314516279766 174.8558151935008 H 0.0 **** 0.06
3946 C 106.54506547854417 27.455470045806806 140.7705446842316 C 0.0 **** -0.24
3947 H 105.59155696963192 27.038821119519042 140.44584087846312 H 0.0 **** 0.06
3948 H 107.23515755865633 26.64426053822372 141.00379012054395 H 0.0 **** 0.06
3949 H 106.39102945468422 28.06943792832226 141.65776376617958 H 0.0 **** 0.06
3950 H 106.96227664618287 28.069661765456743 139.972365040677 H 0.0 **** 0.06
3951 C 50.92663754796587 126.34118372157265 55.09682931490829 C 0.0 **** -0.24
3952 H 51.89632709014535 126.37129122475237 54.60029121499127 H 0.0 **** 0.06
3953 H 50.15677557437772 126.07164578823246 54.374283682964574 H 0.0 **** 0.06
3954 H 50.70358419535248 127.32252555985197 55.51727645498056 H 0.0 **** 0.06
3955 H 50.95017438485684 125.60076547493252 55.89628675324539 H 0.0 **** 0.06
3956 C 152.54584584569625 152.35594358593167 0.2511210394764589 C 0.0 **** -0.24
3957 H 151.87570067876047 153.21002408397823 0.15810868007858403 H 0.0 **** 0.06
3958 H 153.31268415850369 152.57536062758177 0.9952437253188577 H 0.0 **** 0.06
3959 H 153.0187204926816 152.1570071922485 -0.7106170970915855 H 0.0 **** 0.06
3960 H 151.97594284394825 151.48094084583713 0.5639151259540256 H 0.0 **** 0.06
3961 C 74.8309768756191 45.64436942063304 146.47677900672176 C 0.0 **** -0.24
3962 H 74.33709980965135 45.46623342122359 147.43166295597462 H 0.0 **** 0.06
3963 H 74.12052539726241 45.482702434175906 145.66525089318552 H 0.0 **** 0.06
3964 H 75.66944507106693 44.95733419888245 146.36788904899987 H 0.0 **** 0.06
3965 H 75.19501256714655 46.670634712924425 146.44289835727037 H 0.0 **** 0.06
3966 C 63.0019891844608 138.69639927089372 22.53555549832808 C 0.0 **** -0.24
3967 H 63.19098980863481 137.70696710996577 22.953675291310503 H 0.0 **** 0.06
3968 H 63.04796482163931 139.44009086744484 23.33064630754211 H 0.0 **** 0.06
3969 H 62.01371323047502 138.7132400764579 22.077370645116986 H 0.0 **** 0.06
3970 H 63.75622565628208 138.92120652442264 21.7811415418941 H 0.0 **** 0.06
3971 C 58.51928999397944 136.37711212947698 132.57015838018066 C 0.0 **** -0.24
3972 H 59.40511349043538 136.24766023817898 131.94835672080455 H 0.0 **** 0.06
3973 H 57.78178223762458 135.6150736051328 132.3138811587267 H 0.0 **** 0.06
3974 H 58.09576177254381 137.36638509940195 132.39726767611273 H 0.0 **** 0.06
3975 H 58.79532106990652 136.27739869819465 133.6198623564519 H 0.0 **** 0.06
3976 C 70.86760389855057 47.90409531650394 64.58023189012742 C 0.0 **** -0.24
3977 H 69.84830596437612 47.54505881340728 64.7218612299901 H 0.0 **** 0.06
3978 H 70.90132133582793 48.568657187532494 63.7164512253448 H 0.0 **** 0.06
3979 H 71.53123953713944 47.05576946422457 64.41383074146133 H 0.0 **** 0.06
3980 H 71.18778680602277 48.44644360594168 65.46961571675244 H 0.0 **** 0.06
3981 C 125.63833212570385 160.51550417898181 105.56856770142849 C 0.0 **** -0.24
3982 H 126.30217948902443 160.48523607517086 106.43311724129745 H 0.0 **** 0.06
3983 H 124.65366025226619 160.86500392720507 105.87846055787986 H 0.0 **** 0.06
3984 H 125.5527769627348 159.51583976039038 105.14285568373322 H 0.0 **** 0.06
3985 H 126.0474408980234 161.19535071669145 104.82162858382372 H 0.0 **** 0.06
3986 C 83.80036088232595 19.09100920319795 144.79536059393897 C 0.0 **** -0.24
3987 H 84.25088798803898 20.056155685606832 145.0239233285645 H 0.0 **** 0.06
3988 H 84.17710615921459 18.34058108896243 145.49206789525635 H 0.0 **** 0.06
3989 H 84.0590912359786 18.80191730576729 143.77680532351616 H 0.0 **** 0.06
3990 H 82.71664607029328 19.163070977965894 144.8892950323939 H 0.0 **** 0.06
3991 C 116.65248867420671 88.67871393225107 53.9293798561757 C 0.0 **** -0.24
3992 H 116.12514135800158 88.20792213018063 53.09967674569769 H 0.0 **** 0.06
3993 H 115.96554828575795 88.81951389422386 54.763312475307075 H 0.0 **** 0.06
3994 H 117.04011986215305 89.64675026666464 53.60979557179644 H 0.0 **** 0.06
3995 H 117.47926313253375 88.04107013561105 54.24176381491246 H 0.0 **** 0.06
3996 C 8.467487565680017 100.5859285286349 8.313787898458315 C 0.0 **** -0.24
3997 H 7.46045308139071 100.20504244308466 8.141905042460905 H 0.0 **** 0.06
3998 H 8.413480538894987 101.631623383987 8.616355031172532 H 0.0 **** 0.06
3999 H 9.0495990279735 100.5018885505122 7.396518651765973 H 0.0 **** 0.06
4000 H 8.946134158941277 100.00369383718618 9.102314759039643 H 0.0 **** 0.06
4001 C 128.06584366344634 131.0260926815826 126.26338448818059 C 0.0 **** -0.24
4002 H 127.27725880042749 130.274197136466 126.23859821204856 H 0.0 **** 0.06
4003 H 127.82467449436649 131.78108177892375 127.01138732745112 H 0.0 **** 0.06
4004 H 128.14856964973353 131.4980296579547 125.28356853507951 H 0.0 **** 0.06
4005 H 129.01260697217248 130.55049719304554 126.51871471149879 H 0.0 **** 0.06
4006 C 4.67110590440646 19.23881386398898 132.99212636974528 C 0.0 **** -0.24
4007 H 4.439832105099718 20.290654344735486 132.82365263460304 H 0.0 **** 0.06
4008 H 5.513710490649352 18.94692937621565 132.3637702864408 H 0.0 **** 0.06
4009 H 3.8024489846569196 18.631566095566768 132.73936631652538 H 0.0 **** 0.06
4010 H 4.929381569717478 19.086581716355482 134.03950900624199 H 0.0 **** 0.06
4011 C 162.1094582920153 8.49898530909627 163.09307654962126 C 0.0 **** -0.24
4012 H 162.46436588458067 9.159759683722285 163.8835360189519 H 0.0 **** 0.06
4013 H 162.95565002616166 7.975307512152199 162.64912107965623 H 0.0 **** 0.06
4014 H 161.6038603388434 9.088031930403218 162.32767850988398 H 0.0 **** 0.06
4015 H 161.41213654575137 7.773794731634155 163.51285313118032 H 0.0 **** 0.06
4016 C 99.21371258815076 35.06510909655337 48.09163946956497 C 0.0 **** -0.24
4017 H 99.84693412525898 34.39579151904984 48.6736410316002 H 0.0 **** 0.06
4018 H 98.6050813272516 35.666643927236024 48.76744951760503 H 0.0 **** 0.06
4019 H 98.56375927825626 34.47661817327504 47.44377412785042 H 0.0 **** 0.06
4020 H 99.83740220473915 35.71868036517675 47.48366729529798 H 0.0 **** 0.06
4021 C 91.71260779253255 77.52048273493402 126.45147908094596 C 0.0 **** -0.24
4022 H 92.72687451168038 77.61791924175252 126.8370079153746 H 0.0 **** 0.06
4023 H 91.73911659930071 77.03708118251348 125.47487548362422 H 0.0 **** 0.06
4024 H 91.26395320911065 78.50982601393999 126.35542006604668 H 0.0 **** 0.06
4025 H 91.11914578561867 76.91820981009636 127.14001997023705 H 0.0 **** 0.06
4026 C 108.42414668576095 154.9313264056224 31.186585686904436 C 0.0 **** -0.24
4027 H 108.479691457135 154.3303511029973 30.278928908648595 H 0.0 **** 0.06
4028 H 109.15492110618425 155.73832161775675 31.133248667415387 H 0.0 **** 0.06
4029 H 108.63820543275682 154.30278011627132 32.05117506095473 H 0.0 **** 0.06
4030 H 107.42258912939434 155.35134077799069 31.282443742086627 H 0.0 **** 0.06
4031 C 172.84484994790955 129.68019436914057 180.48868752205993 C 0.0 **** -0.24
4032 H 173.00052274644636 130.71956488852481 180.77971895367943 H 0.0 **** 0.06
4033 H 172.4390871356726 129.6444741075344 179.476845139607 H 0.0 **** 0.06
4034 H 172.1441474465861 129.21074992256536 181.17864133359276 H 0.0 **** 0.06
4035 H 173.79597038363855 129.14882691851858 180.51712877162038 H 0.0 **** 0.06
4036 C 15.426080944839363 63.17555867488875 148.84896651913965 C 0.0 **** -0.24
4037 H 14.500787003734693 63.0208210389232 149.40386988732322 H 0.0 **** 0.06
4038 H 15.39465184442512 62.60067499551022 147.92290423506495 H 0.0 **** 0.06
4039 H 16.271068083874688 62.845052639527125 149.45399617811816 H 0.0 **** 0.06
4040 H 15.538304724611848 64.23455890054674 148.61721514227085 H 0.0 **** 0.06
4041 C 146.4022794626383 164.2620870861002 118.84604440865947 C 0.0 **** -0.24
4042 H 145.68092628655214 164.71982001952273 119.52345826774307 H 0.0 **** 0.06
4043 H 146.88431450199275 163.41990826167626 119.34394344154713 H 0.0 **** 0.06
4044 H 147.15457939954905 164.99832373152043 118.5660020393688 H 0.0 **** 0.06
4045 H 145.88740172400355 163.91041628256727 117.95232022922907 H 0.0 **** 0.06
4046 C 91.3797524472535 59.49985248264994 43.153975614160714 C 0.0 **** -0.24
4047 H 91.41267370264087 60.17990446682859 42.30360580171579 H 0.0 **** 0.06
4048 H 91.64792001790788 58.49525857091572 42.82598079005619 H 0.0 **** 0.06
4049 H 90.3718139632797 59.48857530121734 43.57165403201782 H 0.0 **** 0.06
4050 H 92.08342107918052 59.83496214584011 43.91527667598815 H 0.0 **** 0.06
4051 C 183.26738786437323 159.5990768817605 66.47732710515203 C 0.0 **** -0.24
4052 H 183.90016935353765 160.05775502565828 65.71732689605528 H 0.0 **** 0.06
4053 H 183.81427140831155 158.7955486230586 66.96944503901435 H 0.0 **** 0.06
4054 H 182.3715822679555 159.19327839498624 66.00600310401161 H 0.0 **** 0.06
4055 H 182.9822140896888 160.35031097690273 67.21371736305012 H 0.0 **** 0.06
4056 C 57.84650783363982 61.04834687712372 152.400072794239 C 0.0 **** -0.24
4057 H 57.439010823109655 60.22303089623799 151.81635190453005 H 0.0 **** 0.06
4058 H 57.83925304243431 61.95749071424177 151.7980319002417 H 0.0 **** 0.06
4059 H 58.869523150657656 60.815294156297114 152.6945238778966 H 0.0 **** 0.06
4060 H 57.2371560673339 61.199126791750075 153.29201407177493 H 0.0 **** 0.06
4061 C 1.633794244779871 110.3859913915365 32.89928189775421 C 0.0 **** -0.24
4062 H 1.632901863780937 110.6217980767996 33.963670823206314 H 0.0 **** 0.06
4063 H 1.9319841226868775 109.34679567553546 32.757442393141105 H 0.0 **** 0.06
4064 H 2.3380703663691804 111.04001795137084 32.38344683710005 H 0.0 **** 0.06
4065 H 0.6344343117856255 110.53711064408854 32.492683780643745 H 0.0 **** 0.06
4066 C 24.964795324870863 89.43865048845409 125.17929808343285 C 0.0 **** -0.24
4067 H 24.83526126901029 89.58624955080246 124.10744837769556 H 0.0 **** 0.06
4068 H 25.957074484640657 89.78092271078332 125.47558205865857 H 0.0 **** 0.06
4069 H 24.86007660459461 88.37980708121425 125.41509244767695 H 0.0 **** 0.06
4070 H 24.20784308581682 90.00878477136648 125.71836541071747 H 0.0 **** 0.06
4071 C 165.18638517935383 18.340435403815633 17.85344428543624 C 0.0 **** -0.24
4072 H 164.87350086146682 18.984490207835933 17.031182651927907 H 0.0 **** 0.06
4073 H 165.09917257301635 17.29692734243531 17.550704707677312 H 0.0 **** 0.06
4074 H 164.54966102574716 18.522527883225138 18.71951937352145 H 0.0 **** 0.06
4075 H 166.22265732437924 18.559307945364452 18.11172751069276 H 0.0 **** 0.06
4076 C 62.96767087108978 15.308065042129627 10.237546274188901 C 0.0 **** -0.24
4077 H 63.09477879283709 15.452832877422985 11.310637242639785 H 0.0 **** 0.06
4078 H 63.80164613988687 15.767857164533012 9.707254072467123 H 0.0 **** 0.06
4079 H 62.03400833220931 15.771378578936513 9.918096432252014 H 0.0 **** 0.06
4080 H 62.939206402836206 14.24115199995564 10.015191357643175 H 0.0 **** 0.06
4081 C 54.44425051412159 99.85124365173704 0.08993390916015187 C 0.0 **** -0.24
4082 H 54.462105435923405 100.74095060921303 -0.5389842717913211 H 0.0 **** 0.06
4083 H 54.1859149022346 100.1317361697574 1.1106189733079646 H 0.0 **** 0.06
4084 H 55.42718793391549 99.3798895108464 0.08025537261653426 H 0.0 **** 0.06
4085 H 53.70168286902623 99.15054498087812 -0.2937522456162469 H 0.0 **** 0.06
4086 C 146.6669117538292 126.29543027133464 38.63664355140041 C 0.0 **** -0.24
4087 H 147.71396334841103 126.58881243407818 38.71265164112563 H 0.0 **** 0.06
4088 H 146.58553453351738 125.38994499327471 38.03493886126897 H 0.0 **** 0.06
4089 H 146.09845026900518 127.09766341826808 38.166099310810594 H 0.0 **** 0.06
4090 H 146.2705630374295 126.10463786400094 39.63456205810084 H 0.0 **** 0.06
4091 C 161.77904283608655 96.27747884428574 23.254952193105623 C 0.0 **** -0.24
4092 H 162.41397300837386 96.96524072684652 22.695302603150367 H 0.0 **** 0.06
4093 H 161.13142258072682 95.7375180782678 22.56329565241421 H 0.0 **** 0.06
4094 H 161.16831543592156 96.84085570655286 23.960537708966513 H 0.0 **** 0.06
4095 H 162.40236762588668 95.56829008937494 23.798216256781416 H 0.0 **** 0.06
4096 C 175.5011662404896 19.299133193365968 68.79614965286238 C 0.0 **** -0.24
4097 H 175.2931280045761 20.35863212147197 68.94021019267595 H 0.0 **** 0.06
4098 H 174.58217573949176 18.783744328817328 68.51419189125018 H 0.0 **** 0.06
4099 H 175.88604125276422 18.874995384722688 69.72320773708329 H 0.0 **** 0.06
4100 H 176.2429271899565 19.17847083936875 68.00638091246152 H 0.0 **** 0.06
4101 C 94.01274659987428 11.144536101882323 95.88079162588998 C 0.0 **** -0.24
4102 H 93.10593379377912 10.583009684547221 96.10702380279379 H 0.0 **** 0.06
4103 H 93.83081797912769 12.20718742456171 96.04311081977342 H 0.0 **** 0.06
4104 H 94.29248513638396 10.978857712881847 94.84079770005643 H 0.0 **** 0.06
4105 H 94.81981977361085 10.81015468052388 96.53261086396977 H 0.0 **** 0.06
4106 C 113.57667720780434 115.77757246684888 30.735346310129387 C 0.0 **** -0.24
4107 H 113.32324166454522 116.37448387920335 29.859532664659042 H 0.0 **** 0.06
4108 H 113.17029468200077 114.77227530155903 30.61920310549823 H 0.0 **** 0.06
4109 H 113.15061365207005 116.24089563293285 31.625610242867793 H 0.0 **** 0.06
4110 H 114.66011742206801 115.72254220295412 30.837215413861486 H 0.0 **** 0.06
4111 C 168.9509311413733 46.46299695838741 83.06108009938345 C 0.0 **** -0.24
4112 H 168.38483826336508 45.67478054770277 82.56464368963476 H 0.0 **** 0.06
4113 H 169.74572240830915 46.01760771198474 83.6589033244927 H 0.0 **** 0.06
4114 H 168.2855751448169 47.03520858844797 83.70754248028265 H 0.0 **** 0.06
4115 H 169.3860977538858 47.12423986313746 82.31129331598753 H 0.0 **** 0.06
4116 C 56.292312864514 176.55830541376173 184.06631702309477 C 0.0 **** -0.24
4117 H 56.637752304806696 176.54563541625976 183.03189425531335 H 0.0 **** 0.06
4118 H 55.66979352115456 177.43800640173077 184.23044260929743 H 0.0 **** 0.06
4119 H 57.15160767688718 176.59069019548917 184.7350665868189 H 0.0 **** 0.06
4120 H 55.70964247139966 175.65869911000328 184.26568373384475 H 0.0 **** 0.06
4121 C 91.83488104372525 91.57715472971341 12.416011817911908 C 0.0 **** -0.24
4122 H 91.35032977255175 92.50129685387998 12.729025765117058 H 0.0 **** 0.06
4123 H 92.68529972046905 91.8124066990535 11.77412163291774 H 0.0 **** 0.06
4124 H 91.12268138685262 90.9624967045815 11.864622166328445 H 0.0 **** 0.06
4125 H 92.18189794187394 91.03288632045394 13.293573497350081 H 0.0 **** 0.06
4126 C 24.466712155230283 84.07714954573873 167.845823350469 C 0.0 **** -0.24
4127 H 24.406636724821396 82.98940813217706 167.82600163508585 H 0.0 **** 0.06
4128 H 25.47381948364057 84.38022031160608 168.1323653302194 H 0.0 **** 0.06
4129 H 23.750005477840006 84.46803528516864 168.56728728757673 H 0.0 **** 0.06
4130 H 24.236939023130617 84.47137407902267 166.85605737711958 H 0.0 **** 0.06
4131 C 94.9061339801516 71.85855576301735 11.899227632163758 C 0.0 **** -0.24
4132 H 95.42929719696133 71.16627135410337 11.239401204557879 H 0.0 **** 0.06
4133 H 94.75578825685 71.38990618586207 12.872056555277055 H 0.0 **** 0.06
4134 H 93.93964280305107 72.11337203527071 11.464579692356637 H 0.0 **** 0.06
4135 H 95.50112116029493 72.76423427059413 12.020586939923248 H 0.0 **** 0.06
4136 C 17.782767351090854 4.786319177640344 91.85371187159814 C 0.0 **** -0.24
4137 H 18.80515827377087 4.445090523134098 92.0165957979944 H 0.0 **** 0.06
4138 H 17.327707229927853 4.199739847501341 91.05549865216358 H 0.0 **** 0.06
4139 H 17.791954336288597 5.839085113307924 91.57213979046139 H 0.0 **** 0.06
4140 H 17.20759186725877 4.659964988584541 92.771112085612 H 0.0 **** 0.06
4141 C 89.52791244032902 184.214069772636 130.85325396661028 C 0.0 **** -0.24
4142 H 88.96903785528612 185.13531665045676 130.68807601131164 H 0.0 **** 0.06
4143 H 90.58000005043671 184.45093825676415 131.01188355558645 H 0.0 **** 0.06
4144 H 89.42784086242291 183.56717653639515 129.98112713647043 H 0.0 **** 0.06
4145 H 89.13343424500708 183.70265210600164 131.73151093164824 H 0.0 **** 0.06
4146 C 25.186627257133438 87.0566309117399 39.14877259386549 C 0.0 **** -0.24
4147 H 26.25880766730228 86.8774632800693 39.222525333133945 H 0.0 **** 0.06
4148 H 25.012728960188156 88.0445223620972 38.718751313392346 H 0.0 **** 0.06
4149 H 24.74139339551678 87.00907968761645 40.1425879963885 H 0.0 **** 0.06
4150 H 24.734498414590547 86.29777637728925 38.50989101085065 H 0.0 **** 0.06
4151 C 183.05167658254402 33.79486587155942 184.9345964250298 C 0.0 **** -0.24
4152 H 183.53114597644165 33.548411878235186 183.9871129692517 H 0.0 **** 0.06
4153 H 182.24993085132718 33.08238488291141 185.13209330941658 H 0.0 **** 0.06
4154 H 182.6388190474639 34.80217867586565 184.88057853999464 H 0.0 **** 0.06
4155 H 183.78724134061991 33.746251619404916 185.73772998353516 H 0.0 **** 0.06
4156 C 139.31345768243187 180.5586839861635 62.02396361984657 C 0.0 **** -0.24
4157 H 139.3009998295134 180.011059889257 61.08122397869798 H 0.0 **** 0.06
4158 H 140.3451710572129 180.74146529310275 62.324444684231224 H 0.0 **** 0.06
4159 H 138.80923666983392 179.9707274120002 62.79107091845438 H 0.0 **** 0.06
4160 H 138.79610392772975 181.50986326153463 61.897383804453355 H 0.0 **** 0.06
4161 C 62.80529003937596 61.415325099010786 122.66014475637418 C 0.0 **** -0.24
4162 H 61.8147254792749 61.04456939038542 122.40045769294052 H 0.0 **** 0.06
4163 H 63.34094686962075 60.65393821346916 123.22793446808957 H 0.0 **** 0.06
4164 H 62.70902376678839 62.31793006486403 123.26383213490617 H 0.0 **** 0.06
4165 H 63.35753189509791 61.64448375412779 121.74920096718817 H 0.0 **** 0.06
4166 C 176.6269412205223 114.32446273281896 152.99916365443215 C 0.0 **** -0.24
4167 H 177.4062267165379 113.56954291102126 152.89481069080233 H 0.0 **** 0.06
4168 H 175.9197261754042 114.01341123405557 153.76805715052274 H 0.0 **** 0.06
4169 H 176.10398643158817 114.43970400839002 152.04913569150426 H 0.0 **** 0.06
4170 H 177.07848701741247 115.27551535491152 153.2827913765731 H 0.0 **** 0.06
4171 C 40.893459732256986 85.10616608076263 122.60583027263029 C 0.0 **** -0.24
4172 H 40.78477532723767 84.6061238728225 121.64388545554202 H 0.0 **** 0.06
4173 H 40.27155523146021 86.00106297571385 122.62140898399737 H 0.0 **** 0.06
4174 H 41.93630292268536 85.38590363042594 122.7539057155801 H 0.0 **** 0.06
4175 H 40.580443828571816 84.43205806743508 123.40303212248482 H 0.0 **** 0.06
4176 C 36.58769434648926 3.6609224753293574 103.9253632538247 C 0.0 **** -0.24
4177 H 36.66685100001024 3.952891491892558 104.97302765894794 H 0.0 **** 0.06
4178 H 36.18218127526649 4.490629855746079 103.3465513935083 H 0.0 **** 0.06
4179 H 35.92609722411447 2.79882689137105 103.83892933610302 H 0.0 **** 0.06
4180 H 37.57604575153414 3.4003489031741765 103.54638794694897 H 0.0 **** 0.06
4181 C 162.71216699285844 7.072287146033972 166.5925044206032 C 0.0 **** -0.24
4182 H 162.22827145603122 7.102217068980288 167.56929390597202 H 0.0 **** 0.06
4183 H 161.95143939113154 7.042566731908174 165.8112614229618 H 0.0 **** 0.06
4184 H 163.33876898345574 6.183140394995135 166.5244797395946 H 0.0 **** 0.06
4185 H 163.32920885974073 7.961996647744542 166.46618456978985 H 0.0 **** 0.06
4186 C 34.21889355015526 76.0176037624006 140.51726958064722 C 0.0 **** -0.24
4187 H 34.87138256589793 75.4502634366369 139.85403931352533 H 0.0 **** 0.06
4188 H 34.818304669225796 76.69576043625152 141.12494894365267 H 0.0 **** 0.06
4189 H 33.675334287844635 75.33139451705023 141.16661044663442 H 0.0 **** 0.06
4190 H 33.50921730514227 76.5934165479144 139.92327831416708 H 0.0 **** 0.06
4191 C 85.27792240955613 11.081536235164606 82.52166022262735 C 0.0 **** -0.24
4192 H 86.21824593401219 10.53631816510699 82.43799841675302 H 0.0 **** 0.06
4193 H 84.76800922185008 10.787999231733124 83.43899763137846 H 0.0 **** 0.06
4194 H 84.64619440887378 10.848206209488495 81.66391887250983 H 0.0 **** 0.06
4195 H 85.47954889981928 12.152352936002217 82.54267702515814 H 0.0 **** 0.06
4196 C 45.29916713187413 159.7503779524187 86.3387620569269 C 0.0 **** -0.24
4197 H 45.325814037776695 159.8044598549145 87.42671446076588 H 0.0 **** 0.06
4198 H 45.24937924165664 160.75958668689148 85.92641956423574 H 0.0 **** 0.06
4199 H 44.421854770385494 159.1855237921331 86.02327328475042 H 0.0 **** 0.06
4200 H 46.20029223663295 159.25497710482742 85.97711317697497 H 0.0 **** 0.06
4201 C 115.68560968993091 176.94590959424892 45.778814114617035 C 0.0 **** -0.24
4202 H 115.81484005735854 176.36380180735762 44.86631129133434 H 0.0 **** 0.06
4203 H 114.64423085871579 176.89363140179438 46.097692622982464 H 0.0 **** 0.06
4204 H 115.95684845501074 177.98428517676768 45.58947834460065 H 0.0 **** 0.06
4205 H 116.32618833816741 176.53949959944578 46.56159459378034 H 0.0 **** 0.06
4206 C 139.20622196708752 134.55483067931976 83.621106787136 C 0.0 **** -0.24
4207 H 139.59942858119035 134.6118753992319 82.60574239945123 H 0.0 **** 0.06
4208 H 139.6236896842537 133.68040519245778 84.12216085812247 H 0.0 **** 0.06
4209 H 138.12100205771821 134.4704383357066 83.58630746542059 H 0.0 **** 0.06
4210 H 139.48388774830772 135.45475612433324 84.16929403164374 H 0.0 **** 0.06
4211 C 158.9547532413564 106.08756712199444 32.61421387105747 C 0.0 **** -0.24
4212 H 159.2673033696748 105.05521456800408 32.456324696755075 H 0.0 **** 0.06
4213 H 158.8655266790957 106.59079095538466 31.652232727646947 H 0.0 **** 0.06
4214 H 159.69639881844034 106.60179055135218 33.22630985307751 H 0.0 **** 0.06
4215 H 157.9913055493497 106.10051017347907 33.12394653479413 H 0.0 **** 0.06
4216 C 85.82890841809358 155.72590603468223 94.73592363439501 C 0.0 **** -0.24
4217 H 86.4670178821154 156.08761039102208 93.92982647744377 H 0.0 **** 0.06
4218 H 86.28692044026435 155.96413242821072 95.69569888211946 H 0.0 **** 0.06
4219 H 85.70988966151337 154.64533330613426 94.64733743124053 H 0.0 **** 0.06
4220 H 84.85248994512328 156.20579188883312 94.66911123307271 H 0.0 **** 0.06
4221 C 135.66993739192378 67.50732386775395 28.24863687189395 C 0.0 **** -0.24
4222 H 135.866853886255 66.67668295436052 28.92720297584171 H 0.0 **** 0.06
4223 H 136.24517231325774 67.37157085634436 27.332547749973628 H 0.0 **** 0.06
4224 H 135.96025135369518 68.4433155128165 28.725754053262676 H 0.0 **** 0.06
4225 H 134.6060924440854 67.53517154469175 28.009798362162655 H 0.0 **** 0.06
4226 C 34.392419729179295 163.0541938394739 16.995125027424592 C 0.0 **** -0.24
4227 H 34.36762430249189 162.5310870317452 17.95114951514148 H 0.0 **** 0.06
4228 H 34.453577853545454 164.12869581197936 17.170295172743295 H 0.0 **** 0.06
4229 H 33.48545908829857 162.8273197882392 16.43416073308805 H 0.0 **** 0.06
4230 H 35.26269402868206 162.72795008412714 16.425857943015785 H 0.0 **** 0.06
4231 C 185.13176109217903 26.947489999138156 65.9764760083515 C 0.0 **** -0.24
4232 H 185.2287555782768 27.754069518163647 66.70321592954224 H 0.0 **** 0.06
4233 H 186.12224866139326 26.5734440470643 65.71496043436265 H 0.0 **** 0.06
4234 H 184.63774965257127 27.323984999518075 65.08009405574144 H 0.0 **** 0.06
4235 H 184.53953495459106 26.14040432559807 66.40681106514474 H 0.0 **** 0.06
4236 C 107.75353864845873 77.99344996542739 51.20581338529166 C 0.0 **** -0.24
4237 H 107.87892666444735 78.13004728971376 52.2801864086947 H 0.0 **** 0.06
4238 H 107.71313369576153 76.92875041208738 50.97728625816302 H 0.0 **** 0.06
4239 H 108.59412469768186 78.44691863149329 50.68096139115778 H 0.0 **** 0.06
4240 H 106.82582132099232 78.46912447070423 50.88536880997668 H 0.0 **** 0.06
4241 C 106.99344202525403 14.446054803531808 175.31734376804283 C 0.0 **** -0.24
4242 H 106.83293817016299 14.478589847264317 176.3949463595864 H 0.0 **** 0.06
4243 H 107.66607492728595 15.252671501749802 175.02586161998468 H 0.0 **** 0.06
4244 H 106.03878872803476 14.565951807369771 174.8045970788495 H 0.0 **** 0.06
4245 H 107.43402014580475 13.488030140265124 175.04437493058884 H 0.0 **** 0.06
4246 C 27.72282580862742 165.5679267173288 119.50834591149209 C 0.0 **** -0.24
4247 H 26.680876448483104 165.88671742242707 119.49737489212004 H 0.0 **** 0.06
4248 H 28.298544092142265 166.18376908858727 118.81673401295217 H 0.0 **** 0.06
4249 H 27.78527144015959 164.5225694834138 119.2045825486266 H 0.0 **** 0.06
4250 H 28.125883344565864 165.67763393999653 120.51535252636319 H 0.0 **** 0.06
4251 C 137.50175748563885 15.960391324352258 120.68987943571403 C 0.0 **** -0.24
4252 H 137.74307992339885 15.063833766263087 121.26083949380723 H 0.0 **** 0.06
4253 H 136.90803405293065 16.635174217071892 121.30705519047797 H 0.0 **** 0.06
4254 H 136.93178006424353 15.682149615206527 119.80271559260763 H 0.0 **** 0.06
4255 H 138.42294571122113 16.458706927830576 120.38807623350152 H 0.0 **** 0.06
4256 C 121.49277123891115 86.27855914897528 6.345836410689415 C 0.0 **** -0.24
4257 H 120.78270260809087 87.06994157542242 6.5849258220407165 H 0.0 **** 0.06
4258 H 121.49116175534247 85.53593392489721 7.143470750340732 H 0.0 **** 0.06
4259 H 122.49211394426369 86.70437726938157 6.246945104486755 H 0.0 **** 0.06
4260 H 121.20602851837349 85.804121396595 5.406940350012185 H 0.0 **** 0.06
4261 C 28.916382487045922 139.0199885017384 79.56033413983727 C 0.0 **** -0.24
4262 H 29.530847070471452 138.4863911323415 80.2857433322431 H 0.0 **** 0.06
4263 H 29.059383958615513 138.5834025716881 78.57220325167037 H 0.0 **** 0.06
4264 H 29.20741773232311 140.07000703102364 79.53979328981649 H 0.0 **** 0.06
4265 H 27.866956796662123 138.94010373280685 79.84466584333893 H 0.0 **** 0.06
4266 C 58.92045817082021 47.347876472055304 110.70467603618498 C 0.0 **** -0.24
4267 H 58.06139173934285 46.964371670443995 111.2552859708393 H 0.0 **** 0.06
4268 H 58.58384557763058 47.78256619872471 109.76257030460637 H 0.0 **** 0.06
4269 H 59.61450289997279 46.5320905896902 110.5001627255303 H 0.0 **** 0.06
4270 H 59.42214621253029 48.111333936650766 111.29851957592716 H 0.0 **** 0.06
4271 C 176.8208496980181 35.510071547495286 70.0800665469194 C 0.0 **** -0.24
4272 H 176.27490057755136 34.674221473923964 70.51848939739517 H 0.0 **** 0.06
4273 H 176.4559480350351 35.691487484807524 69.06868906140528 H 0.0 **** 0.06
4274 H 177.8837281528346 35.27296450400186 70.04726446840681 H 0.0 **** 0.06
4275 H 176.66659545115817 36.40223157784885 70.68773627064888 H 0.0 **** 0.06
4276 C 124.71712602329522 29.91499692795537 151.07451039682832 C 0.0 **** -0.24
4277 H 125.40872489220068 30.711917496724197 151.347609228148 H 0.0 **** 0.06
4278 H 124.39017611980778 29.393478509054376 151.9740534260521 H 0.0 **** 0.06
4279 H 125.21844466287381 29.21249537277913 150.40840638076088 H 0.0 **** 0.06
4280 H 123.85200434175611 30.34243891397182 150.5668922276824 H 0.0 **** 0.06
4281 C 125.83840253252806 183.0412503304793 154.09640313516834 C 0.0 **** -0.24
4282 H 125.16720597277815 183.315712575499 154.91067399702854 H 0.0 **** 0.06
4283 H 125.39462152009575 182.22947300261936 153.518812984976 H 0.0 **** 0.06
4284 H 126.79384914956903 182.71445932851137 154.5080726530483 H 0.0 **** 0.06
4285 H 125.99754755475466 183.903913686948 153.44999448719588 H 0.0 **** 0.06
4286 C 153.38562319941445 88.6218294925386 105.01135203581812 C 0.0 **** -0.24
4287 H 153.8984075621719 88.84304586407687 105.94819135680227 H 0.0 **** 0.06
4288 H 152.31142648883656 88.5760025641308 105.18770582244439 H 0.0 **** 0.06
4289 H 153.73267361534965 87.66239305998634 104.62648695794492 H 0.0 **** 0.06
4290 H 153.6028363996594 89.40504061970837 104.286213374768 H 0.0 **** 0.06
4291 C 20.122896594481062 85.30317522974656 170.83302210155057 C 0.0 **** -0.24
4292 H 20.473093665078068 84.41134454332996 171.3513958734203 H 0.0 **** 0.06
4293 H 19.534578699960434 85.01032646306601 169.9638845993651 H 0.0 **** 0.06
4294 H 20.97893807266462 85.89576806588241 170.5107844963539 H 0.0 **** 0.06
4295 H 19.504035870894086 85.89568100309316 171.5080085569989 H 0.0 **** 0.06
4296 C 169.3853065694658 122.31319884394331 7.8930795598007535 C 0.0 **** -0.24
4297 H 170.2102150744545 123.00890648977368 8.045343089280124 H 0.0 **** 0.06
4298 H 168.6823194602226 122.3958932875545 8.721952357883168 H 0.0 **** 0.06
4299 H 169.77226459700748 121.29563719949256 7.845475658866349 H 0.0 **** 0.06
4300 H 168.87560529503193 122.55215487735309 6.958414353811975 H 0.0 **** 0.06
4301 C 141.9538123005804 72.97760259912957 172.13391058907237 C 0.0 **** -0.24
4302 H 142.1422411240311 72.02093630960526 171.64737740870092 H 0.0 **** 0.06
4303 H 142.87261909318772 73.33551570634866 172.5985100404313 H 0.0 **** 0.06
4304 H 141.18520241474863 72.85267215506249 172.89670190632026 H 0.0 **** 0.06
4305 H 141.61514000322984 73.70075271852618 171.39140579837388 H 0.0 **** 0.06
4306 C 74.72473506953878 113.91532093755869 54.66888662185177 C 0.0 **** -0.24
4307 H 74.555137290606 114.6811161345229 55.42546620190626 H 0.0 **** 0.06
4308 H 74.29649857298526 114.24133803728039 53.72119114888878 H 0.0 **** 0.06
4309 H 74.25027667730623 112.98466977314187 54.98197772003722 H 0.0 **** 0.06
4310 H 75.79597530311926 113.75447577959982 54.547801692964214 H 0.0 **** 0.06
4311 C 169.13802290962136 68.34749807223778 60.51392533593666 C 0.0 **** -0.24
4312 H 169.61561429736219 67.40672945163772 60.239662253419525 H 0.0 **** 0.06
4313 H 168.12312867485147 68.1515777609992 60.861769149936535 H 0.0 **** 0.06
4314 H 169.10390833453295 69.00471511814203 59.64501434301573 H 0.0 **** 0.06
4315 H 169.70805226427646 68.82670056172083 61.30922832647069 H 0.0 **** 0.06
4316 C 167.28805110947098 55.045136479843364 25.32199428910829 C 0.0 **** -0.24
4317 H 167.25762036537606 55.077167304477584 24.233765309453375 H 0.0 **** 0.06
4318 H 168.20365760214509 55.52079739537891 25.674639759969594 H 0.0 **** 0.06
4319 H 167.26454956624912 54.00754530087923 25.655782541449327 H 0.0 **** 0.06
4320 H 166.4242792279178 55.57562392403416 25.724909435073357 H 0.0 **** 0.06
4321 C 104.35535911880719 164.18650901909365 150.36150370333633 C 0.0 **** -0.24
4322 H 104.23546292097662 165.26715089892429 150.43062217979963 H 0.0 **** 0.06
4323 H 103.3985489797662 163.72922708131338 150.1068294333777 H 0.0 **** 0.06
4324 H 104.7001544193332 163.79775545508244 151.32009342283555 H 0.0 **** 0.06
4325 H 105.08796107959965 163.950041409807 149.58949864332328 H 0.0 **** 0.06
4326 C 80.53239570645655 87.23097502774544 49.579969990755515 C 0.0 **** -0.24
4327 H 80.82247727873107 88.0189227168508 48.88485022674959 H 0.0 **** 0.06
4328 H 80.2002232143314 87.677722509803 50.51780020951665 H 0.0 **** 0.06
4329 H 81.38622858187273 86.58076086876628 49.768772309492164 H 0.0 **** 0.06
4330 H 79.71934923379757 86.64607442392719 49.14810760684598 H 0.0 **** 0.06
4331 C 131.63866656335495 46.33620302514652 119.40506703338345 C 0.0 **** -0.24
4332 H 131.7653836497919 47.4092963696948 119.54811183680677 H 0.0 **** 0.06
4333 H 132.02834731455243 46.05040308232958 118.42778576340955 H 0.0 **** 0.06
4334 H 130.5786764670732 46.08448921371348 119.46201058026035 H 0.0 **** 0.06
4335 H 132.18085836944266 45.79998279610214 120.18398119893625 H 0.0 **** 0.06
4336 C 135.27637789886938 39.546382900538845 134.40134411637308 C 0.0 **** -0.24
4337 H 135.57849133033272 39.987474803885846 133.45147108783743 H 0.0 **** 0.06
4338 H 135.44009763072506 40.265721212235235 135.20409352914078 H 0.0 **** 0.06
4339 H 135.86562131747291 38.649726215927274 134.58886825854916 H 0.0 **** 0.06
4340 H 134.21911611649637 39.28371580744522 134.35870730570878 H 0.0 **** 0.06
4341 C 161.345365467065 162.5012309874927 106.95019426177163 C 0.0 **** -0.24
4342 H 162.32469643277292 162.1517250552099 107.27722610790266 H 0.0 **** 0.06
4343 H 160.97687377651462 161.85295227807336 106.1545234894873 H 0.0 **** 0.06
4344 H 161.42926444356948 163.52236568073448 106.57797353666706 H 0.0 **** 0.06
4345 H 160.65138992157623 162.47581508375364 107.7906657667184 H 0.0 **** 0.06
4346 C 168.49245978829143 13.651788193511663 49.547833913929196 C 0.0 **** -0.24
4347 H 167.98456426573154 13.406570582597567 48.61507037178325 H 0.0 **** 0.06
4348 H 169.50480003069697 13.993693969867138 49.33094441783666 H 0.0 **** 0.06
4349 H 168.5349200724874 12.766503349657228 50.18176073562438 H 0.0 **** 0.06
4350 H 167.94460622946383 14.441188044905857 50.062353800863605 H 0.0 **** 0.06
4351 C 52.70511716206832 114.44989308398243 179.77175159712158 C 0.0 **** -0.24
4352 H 52.26520349441543 115.41074636129349 180.03935823847215 H 0.0 **** 0.06
4353 H 51.913669921923486 113.7489550346325 179.50856449201694 H 0.0 **** 0.06
4354 H 53.269916392821955 114.06056246344542 180.61936405741517 H 0.0 **** 0.06
4355 H 53.37262894317831 114.58248421785726 178.9198302411307 H 0.0 **** 0.06
4356 C 95.72167457070908 73.80250980805567 14.794445430795044 C 0.0 **** -0.24
4357 H 95.16095418859025 73.77334960118776 15.728739656480684 H 0.0 **** 0.06
4358 H 95.78394658371833 74.83237141470443 14.441620187329164 H 0.0 **** 0.06
4359 H 95.21534361644949 73.19213067926728 14.047113756959988 H 0.0 **** 0.06
4360 H 96.72617506935175 73.41352387921359 14.962079158831258 H 0.0 **** 0.06
4361 C 39.054810373615894 96.27923807556725 178.21136810004236 C 0.0 **** -0.24
4362 H 38.085855296225645 96.44191250472933 178.68295525228172 H 0.0 **** 0.06
4363 H 39.0010995811468 96.57511568681998 177.16273517974605 H 0.0 **** 0.06
4364 H 39.31945125720421 95.22407200879674 178.27908172389692 H 0.0 **** 0.06
4365 H 39.810930683559235 96.87769836916185 178.71929891351914 H 0.0 **** 0.06
4366 C 180.40793538869116 77.11018066182618 110.14297408318087 C 0.0 **** -0.24
4367 H 180.57045140131618 76.55434532632196 109.21950779253434 H 0.0 **** 0.06
4368 H 179.67081140923636 76.59164148813409 110.75494850584955 H 0.0 **** 0.06
4369 H 180.04548827804484 78.11024314024236 109.90586338142147 H 0.0 **** 0.06
4370 H 181.34793612569948 77.18503057503484 110.69139227600023 H 0.0 **** 0.06
4371 C 103.04311438123557 125.8819276844193 133.94857541860102 C 0.0 **** -0.24
4372 H 103.5961981848061 126.7518950844936 133.59319616284176 H 0.0 **** 0.06
4373 H 102.11183839832262 125.78928936028099 133.38955524530047 H 0.0 **** 0.06
4374 H 102.82076893473982 126.00206548644555 135.0087078468863 H 0.0 **** 0.06
4375 H 103.64580612971162 124.98502019167326 133.80305913904652 H 0.0 **** 0.06
4376 C 8.980301934413319 143.41039318199773 24.777644483445897 C 0.0 **** -0.24
4377 H 8.247385684567831 144.19467262711134 24.96714352723083 H 0.0 **** 0.06
4378 H 9.85883264888082 143.57563756253347 25.4026232684119 H 0.0 **** 0.06
4379 H 9.27184392067332 143.43179821314993 23.727177692582643 H 0.0 **** 0.06
4380 H 8.54319729262474 142.44079176289625 25.014118496483405 H 0.0 **** 0.06
4381 C 77.23049536463742 171.51913637736027 64.98492302604106 C 0.0 **** -0.24
4382 H 76.18315280016395 171.23064160445125 64.88953062397331 H 0.0 **** 0.06
4383 H 77.6922873968901 170.94533039591653 65.78907861064961 H 0.0 **** 0.06
4384 H 77.2938420857372 172.58280180157794 65.21492177880745 H 0.0 **** 0.06
4385 H 77.74973639484972 171.31725078661287 64.04838615629033 H 0.0 **** 0.06
4386 C 161.16467514102092 68.97323165539939 43.636375973729514 C 0.0 **** -0.24
4387 H 160.4074367951751 68.64163964371545 44.34599288401296 H 0.0 **** 0.06
4388 H 160.97407108687082 70.01095579057493 43.36085627931908 H 0.0 **** 0.06
4389 H 161.12513260192958 68.34740687447015 42.74424475046828 H 0.0 **** 0.06
4390 H 162.1507870904552 68.89341878411423 44.092376475821396 H 0.0 **** 0.06
4391 C 5.125644093310001 84.9632801746577 149.78484545772676 C 0.0 **** -0.24
4392 H 6.104113820826491 84.79184110095647 149.33675619583573 H 0.0 **** 0.06
4393 H 5.22178341115044 85.67049296773165 150.60895872136467 H 0.0 **** 0.06
4394 H 4.727469923464469 84.02020407168767 150.15966029946765 H 0.0 **** 0.06
4395 H 4.448928938285391 85.36984253495216 149.0324658731669 H 0.0 **** 0.06
4396 C 163.37054953033706 136.54039645832154 153.47536301056297 C 0.0 **** -0.24
4397 H 164.00239780578755 137.40936488756876 153.29000388968473 H 0.0 **** 0.06
4398 H 162.64171749239776 136.7808366930414 154.2506228154061 H 0.0 **** 0.06
4399 H 163.98891129287122 135.70541383434124 153.80467002421892 H 0.0 **** 0.06
4400 H 162.84917707534964 136.2673829661333 152.55815651914327 H 0.0 **** 0.06
4401 C 58.29231873695369 60.42798786125556 140.9829232157884 C 0.0 **** -0.24
4402 H 57.73009637825072 59.56827416697247 140.6168060560342 H 0.0 **** 0.06
4403 H 58.63630510367415 60.23108354256324 141.9987300149637 H 0.0 **** 0.06
4404 H 57.65050045892775 61.30880594156777 140.98006618339758 H 0.0 **** 0.06
4405 H 59.15131956406776 60.602115470071425 140.33578452073385 H 0.0 **** 0.06
4406 C 128.563296384877 58.675166925770085 116.26613439923356 C 0.0 **** -0.24
4407 H 127.61420551405082 58.23821622186125 116.5778473815278 H 0.0 **** 0.06
4408 H 128.49271496149316 59.76212904690905 116.30681576635915 H 0.0 **** 0.06
4409 H 128.78887724568574 58.363860299486376 115.24582815073849 H 0.0 **** 0.06
4410 H 129.35550283117436 58.33641437159014 116.93337948412791 H 0.0 **** 0.06
4411 C 165.76888256374392 137.73425199932814 47.47120362835432 C 0.0 **** -0.24
4412 H 164.8180376285772 137.20227966135212 47.475965973338276 H 0.0 **** 0.06
4413 H 166.55542622025425 137.07617381594088 47.83969315243024 H 0.0 **** 0.06
4414 H 165.69748272125958 138.61206526861304 48.114250528831064 H 0.0 **** 0.06
4415 H 166.00451304711657 138.04851893325036 46.453969163625175 H 0.0 **** 0.06
4416 C 23.165990956344075 100.42951632285947 82.95965979788276 C 0.0 **** -0.24
4417 H 23.043596003143932 99.52083929836017 82.36901697927323 H 0.0 **** 0.06
4418 H 22.555341222005353 100.36132745613402 83.86023769874669 H 0.0 **** 0.06
4419 H 22.85257479607634 101.29023394056985 82.37034934235038 H 0.0 **** 0.06
4420 H 24.21400290193091 100.54159200785033 83.23912784250919 H 0.0 **** 0.06
4421 C 169.6981761833711 82.29441759232883 18.409090944444884 C 0.0 **** -0.24
4422 H 168.75490059863512 81.76938605809364 18.254645317625993 H 0.0 **** 0.06
4423 H 169.99455508839017 82.20700474594277 19.45483944486209 H 0.0 **** 0.06
4424 H 169.57491459431043 83.3460611891278 18.153378898385583 H 0.0 **** 0.06
4425 H 170.4671525662639 81.85268470350024 17.774588175309248 H 0.0 **** 0.06
4426 C 11.124126280883644 30.58039675843395 112.81656155853595 C 0.0 **** -0.24
4427 H 11.449212387767261 31.488459621824177 112.3087070279101 H 0.0 **** 0.06
4428 H 11.983338188853878 29.927911871293105 112.97746456101238 H 0.0 **** 0.06
4429 H 10.386368970896854 30.064464328605794 112.20099168055818 H 0.0 **** 0.06
4430 H 10.6784029819907 30.840023036672164 113.77628978894698 H 0.0 **** 0.06
4431 C 25.86865124087214 19.37485235071584 125.39267269861786 C 0.0 **** -0.24
4432 H 26.16226788927804 18.82908827990922 126.28932603457797 H 0.0 **** 0.06
4433 H 26.755479847663764 19.609640111304344 124.80469219440526 H 0.0 **** 0.06
4434 H 25.36663383895643 20.298352820196797 125.67853934060658 H 0.0 **** 0.06
4435 H 25.1904376056803 18.760771779125122 124.79972439264462 H 0.0 **** 0.06
4436 C 54.090074670518106 91.33531640947875 42.44723898380238 C 0.0 **** -0.24
4437 H 53.64831490447159 91.73294610825705 43.360732435236116 H 0.0 **** 0.06
4438 H 53.32936473460495 90.79937594265836 41.8788671039446 H 0.0 **** 0.06
4439 H 54.90097698545168 90.65261762517981 42.703955178063495 H 0.0 **** 0.06
4440 H 54.48285851034092 92.15537894985228 41.8466753881996 H 0.0 **** 0.06
4441 C 67.36021022562494 37.66728934890227 171.63406245338982 C 0.0 **** -0.24
4442 H 67.28390589222104 38.46080690828319 172.37788629765572 H 0.0 **** 0.06
4443 H 68.059613636282 36.90827131149632 171.98468027075486 H 0.0 **** 0.06
4444 H 67.71646048838073 38.085265878871354 170.69263920701238 H 0.0 **** 0.06
4445 H 66.37948240968132 37.21544031689038 171.48363380116365 H 0.0 **** 0.06
4446 C 175.66145940352345 128.34938117575763 119.99676835566463 C 0.0 **** -0.24
4447 H 174.67426877539512 128.00812026919482 119.68750958924495 H 0.0 **** 0.06
4448 H 175.590087586283 128.83426439276008 120.97038567969047 H 0.0 **** 0.06
4449 H 176.0455415811739 129.0599677302896 119.2644173403972 H 0.0 **** 0.06
4450 H 176.33639790666376 127.49596864340185 120.06436597237321 H 0.0 **** 0.06
4451 C 109.06126614075067 177.01978600336264 63.65404933805695 C 0.0 **** -0.24
4452 H 108.11573525424065 177.34158176738288 64.09133895543829 H 0.0 **** 0.06
4453 H 109.56988535558973 176.34722734878488 64.34505347978583 H 0.0 **** 0.06
4454 H 109.68882402194212 177.8915045960494 63.465801654744155 H 0.0 **** 0.06
4455 H 108.86877957811087 176.501229551736 62.71536596886287 H 0.0 **** 0.06
4456 C 149.0691218835059 67.88497099149366 142.2980457111379 C 0.0 **** -0.24
4457 H 149.47674345774234 67.00298961743745 141.80450355528893 H 0.0 **** 0.06
4458 H 147.98129760024779 67.81345622443317 142.32795158707557 H 0.0 **** 0.06
4459 H 149.35953007552882 68.7776294335316 141.74385859836468 H 0.0 **** 0.06
4460 H 149.45833705109695 67.94483145712495 143.3145616470553 H 0.0 **** 0.06
4461 C 74.61960483229724 62.51509691489353 87.66510930078685 C 0.0 **** -0.24
4462 H 73.93945799813518 63.348122449329026 87.49112345636844 H 0.0 **** 0.06
4463 H 75.54870403283167 62.683514598347756 87.1199106757765 H 0.0 **** 0.06
4464 H 74.157973178432 61.5898943452091 87.31888999759026 H 0.0 **** 0.06
4465 H 74.83278699955709 62.43619777829359 88.73133754240241 H 0.0 **** 0.06
4466 C 73.04578762041012 169.41342570298906 172.7222380655168 C 0.0 **** -0.24
4467 H 72.69611900346916 170.22100220165606 172.0777472100975 H 0.0 **** 0.06
4468 H 73.79062802177957 168.82200743062947 172.18983167488463 H 0.0 **** 0.06
4469 H 72.20544370420868 168.77774480457575 172.99767991516282 H 0.0 **** 0.06
4470 H 73.49232012691805 169.8361993472986 173.62243612094974 H 0.0 **** 0.06
4471 C 149.98915318739984 77.61017063277018 140.70555596812267 C 0.0 **** -0.24
4472 H 149.46177118952335 77.38192848675192 141.6317250197415 H 0.0 **** 0.06
4473 H 150.52832477155278 76.72523618626496 140.366515546053 H 0.0 **** 0.06
4474 H 150.69563455211568 78.42154885327301 140.88055261706359 H 0.0 **** 0.06
4475 H 149.27087347017022 77.91296292224956 139.9433207989929 H 0.0 **** 0.06
4476 C 111.62681663053824 78.55112564735637 71.89787908503801 C 0.0 **** -0.24
4477 H 110.59263142437284 78.25260833398676 71.72604271490886 H 0.0 **** 0.06
4478 H 112.13852899905847 77.77518122609028 72.4677773966574 H 0.0 **** 0.06
4479 H 111.64660376673204 79.48600570823587 72.45675569973497 H 0.0 **** 0.06
4480 H 112.12818120943736 78.68948594327512 70.93961275064902 H 0.0 **** 0.06
4481 C 172.97821437213082 140.54077304151554 140.52678755572396 C 0.0 **** -0.24
4482 H 173.8002718787106 140.24340188748488 139.87611006020325 H 0.0 **** 0.06
4483 H 173.01166319000765 139.95410968686878 141.44537379153383 H 0.0 **** 0.06
4484 H 172.0302642588263 140.36517447016917 140.0175340780849 H 0.0 **** 0.06
4485 H 173.07009754824193 141.59957892983363 140.7681709189295 H 0.0 **** 0.06
4486 C 151.31326652512348 43.780274329798175 146.4067716875769 C 0.0 **** -0.24
4487 H 150.70041681367633 44.25025137456808 147.17632427573153 H 0.0 **** 0.06
4488 H 150.6692387726448 43.39021143360162 145.61795828752253 H 0.0 **** 0.06
4489 H 151.88521641553865 42.962997501445116 146.84697537944476 H 0.0 **** 0.06
4490 H 151.99733562973904 44.517368537885815 145.98730901984084 H 0.0 **** 0.06
4491 C 170.29147131392472 88.16274830829953 44.82986637450328 C 0.0 **** -0.24
4492 H 170.2022588755306 88.67622800991917 43.872457839042966 H 0.0 **** 0.06
4493 H 170.35860001318028 87.0873884578135 44.65893263623717 H 0.0 **** 0.06
4494 H 169.4165423598975 88.38007952890199 45.441119011476246 H 0.0 **** 0.06
4495 H 171.18884514478356 88.50641925884675 45.34333674604055 H 0.0 **** 0.06
4496 C 169.92534327362364 120.32844689807864 27.250639985326146 C 0.0 **** -0.24
4497 H 170.09445330854015 120.67831316388474 26.232160844467657 H 0.0 **** 0.06
4498 H 170.25275309091916 119.29213061487896 27.337569559388854 H 0.0 **** 0.06
4499 H 168.8626631957648 120.3956466631199 27.48490185010496 H 0.0 **** 0.06
4500 H 170.49101606588633 120.94801991046843 27.94663994354697 H 0.0 **** 0.06
4501 C 9.050075697148912 5.910406846718558 184.08170925511524 C 0.0 **** -0.24
4502 H 9.974264255705492 6.45271952912708 183.8793658530555 H 0.0 **** 0.06
4503 H 8.21249573613369 6.438057998857175 183.6262156578237 H 0.0 **** 0.06
4504 H 8.89687731270081 5.8458343215021955 185.15912051174791 H 0.0 **** 0.06
4505 H 9.119019668899455 4.906698080979083 183.6634105792441 H 0.0 **** 0.06
4506 C 76.88400916012088 3.3895396091406838 21.34460801210082 C 0.0 **** -0.24
4507 H 77.43383758402115 2.5896233322142734 20.84961003723953 H 0.0 **** 0.06
4508 H 77.586709538512 4.131540698020672 21.725231124042722 H 0.0 **** 0.06
4509 H 76.3071910284021 2.976664058626625 22.171293531913705 H 0.0 **** 0.06
4510 H 76.20904202825733 3.8615165805751417 20.63055375968912 H 0.0 **** 0.06
4511 C 150.3071429312514 27.497890408154035 138.5407480915493 C 0.0 **** -0.24
4512 H 150.85881978779145 27.46802616418472 139.47981790318903 H 0.0 **** 0.06
4513 H 150.316128349314 28.5143677453747 138.1467843132762 H 0.0 **** 0.06
4514 H 149.27705271987998 27.184508706965147 138.71432649364806 H 0.0 **** 0.06
4515 H 150.7752791804138 26.824509122611516 137.8226196457445 H 0.0 **** 0.06
4516 C 163.90490795697417 179.21400609779863 40.85427895412042 C 0.0 **** -0.24
4517 H 164.15727457111055 178.19900371487702 40.54742456296793 H 0.0 **** 0.06
4518 H 163.59649550927787 179.21153575855368 41.89897698877513 H 0.0 **** 0.06
4519 H 163.08921322705288 179.5882309920263 40.23476525252738 H 0.0 **** 0.06
4520 H 164.7762542170668 179.8570344687756 40.73354141760865 H 0.0 **** 0.06
4521 C 103.96112736207363 125.37241646595544 27.121868670132756 C 0.0 **** -0.24
4522 H 102.9680932694717 125.14508256286001 26.73382362450586 H 0.0 **** 0.06
4523 H 104.23528354873861 124.63313838053881 27.874738294271566 H 0.0 **** 0.06
4524 H 103.95677015584056 126.3653129701425 27.570689224680905 H 0.0 **** 0.06
4525 H 104.68400724782447 125.3455942032137 26.305860320922207 H 0.0 **** 0.06
4526 C 156.77178642148283 68.50943667162869 27.3826138336689 C 0.0 **** -0.24
4527 H 157.31405827785363 68.151814312443 26.50726770371179 H 0.0 **** 0.06
4528 H 156.0164359390364 69.23114032712759 27.072132210546926 H 0.0 **** 0.06
4529 H 157.4686016523297 68.98571625793453 28.071391461773743 H 0.0 **** 0.06
4530 H 156.2883369129031 67.66783456324306 27.879049968576084 H 0.0 **** 0.06
4531 C 150.62660926054195 150.83177203468028 7.83741450480926 C 0.0 **** -0.24
4532 H 151.24641231913643 151.14587824654095 8.676908880182935 H 0.0 **** 0.06
4533 H 150.35979106980017 151.70168025202588 7.237161963789646 H 0.0 **** 0.06
4534 H 149.72039140251832 150.35660917029105 8.211685508625862 H 0.0 **** 0.06
4535 H 151.1812642219311 150.12156892562652 7.222828610439848 H 0.0 **** 0.06
4536 C 7.028526672011083 69.17355527545128 30.218700673804648 C 0.0 **** -0.24
4537 H 7.096712462345465 68.25978722081086 30.8099443041595 H 0.0 **** 0.06
4538 H 7.880173837679649 69.23073944699249 29.53963552338969 H 0.0 **** 0.06
4539 H 7.033286165924466 70.03744350712122 30.88295500778372 H 0.0 **** 0.06
4540 H 6.103346480854242 69.16354004374887 29.641714804192276 H 0.0 **** 0.06
4541 C 3.5915564028869937 18.282561512544873 150.18286566480276 C 0.0 **** -0.24
4542 H 3.23487936349224 18.15155265038578 151.20456500145542 H 0.0 **** 0.06
4543 H 3.130821160534026 17.53368742185785 149.53889284839647 H 0.0 **** 0.06
4544 H 4.674984128295307 18.166299103968214 150.15874565750977 H 0.0 **** 0.06
4545 H 3.3251952127784534 19.278925420739824 149.83017168755646 H 0.0 **** 0.06
4546 C 5.873333130728781 155.78955599384722 67.10622613332679 C 0.0 **** -0.24
4547 H 4.9569944776349075 155.62667642120257 66.53827094352468 H 0.0 **** 0.06
4548 H 6.235413506480256 156.80183863378545 66.92886773589053 H 0.0 **** 0.06
4549 H 6.629544208396339 155.0717573647134 66.78881742088906 H 0.0 **** 0.06
4550 H 5.669656085072177 155.65653760004878 68.16878160655389 H 0.0 **** 0.06
4551 C 29.27855701279674 164.23661944942802 35.98244690179732 C 0.0 **** -0.24
4552 H 28.794275965821754 164.69797362152673 35.122133270526405 H 0.0 **** 0.06
4553 H 30.29216732402034 164.6273335143227 36.08080878536431 H 0.0 **** 0.06
4554 H 29.318193832404177 163.15621882435192 35.84095558145583 H 0.0 **** 0.06
4555 H 28.711769388295124 164.46490407022497 36.88538781777099 H 0.0 **** 0.06
4556 C 25.683122942677528 135.43380735730562 99.69346613577012 C 0.0 **** -0.24
4557 H 26.191658091825104 135.91871865657941 100.52721215006419 H 0.0 **** 0.06
4558 H 24.67025762946014 135.16545112452332 99.99361968046146 H 0.0 **** 0.06
4559 H 26.22969640233373 134.53521351053968 99.40881917266476 H 0.0 **** 0.06
4560 H 25.642710884146823 136.11842230324748 98.84621611006607 H 0.0 **** 0.06
4561 C 157.7775849019726 76.4817941199571 64.77239726832678 C 0.0 **** -0.24
4562 H 158.6171579548727 75.9320521641896 65.19855598191742 H 0.0 **** 0.06
4563 H 158.11880729058544 77.05212499228969 63.90820495663981 H 0.0 **** 0.06
4564 H 157.37225153758686 77.16284528168228 65.5208099523733 H 0.0 **** 0.06
4565 H 157.00411776949784 75.7791654280021 64.4618109085702 H 0.0 **** 0.06
4566 C 147.0355870564124 129.04267485877955 103.14802249281064 C 0.0 **** -0.24
4567 H 147.06178508460658 128.34978566464855 102.30752646707163 H 0.0 **** 0.06
4568 H 147.17493710806747 130.06076385141262 102.7823248473847 H 0.0 **** 0.06
4569 H 147.83295193433284 128.79519358000255 103.84833786173152 H 0.0 **** 0.06
4570 H 146.07238338545153 128.9656413709253 103.65179216024734 H 0.0 **** 0.06
4571 C 174.6349283788689 74.10474174030469 75.27971354632858 C 0.0 **** -0.24
4572 H 173.62234931137306 74.02799331211719 74.88414349729831 H 0.0 **** 0.06
4573 H 174.93642102186448 73.14142840709843 75.69282976113189 H 0.0 **** 0.06
4574 H 174.6621736959497 74.86087670496511 76.06383149146963 H 0.0 **** 0.06
4575 H 175.31739874420603 74.38675311404074 74.47737685145987 H 0.0 **** 0.06
4576 C 150.7906416214704 95.89482897073565 133.5595774785789 C 0.0 **** -0.24
4577 H 150.5618796744253 96.77044907000241 132.95264522581346 H 0.0 **** 0.06
4578 H 151.776604208371 96.01134777329797 134.00968914692442 H 0.0 **** 0.06
4579 H 150.78153986745573 95.00506119560451 132.93012229772722 H 0.0 **** 0.06
4580 H 150.0422916711716 95.79177535436544 134.34464030365626 H 0.0 **** 0.06
4581 C 90.15965831161215 19.25257524710753 47.99918044817696 C 0.0 **** -0.24
4582 H 89.93407058664441 18.973898589566772 49.027981125864585 H 0.0 **** 0.06
4583 H 89.38822056764836 18.85479243038344 47.33842327134374 H 0.0 **** 0.06
4584 H 91.12838653514142 18.841078831363347 47.71518273725698 H 0.0 **** 0.06
4585 H 90.18655242470682 20.33931036404067 47.914399109682506 H 0.0 **** 0.06
4586 C 174.2136989350058 168.7744391386093 41.11974312200111 C 0.0 **** -0.24
4587 H 174.42650678353286 168.93361119476782 42.1764670307186 H 0.0 **** 0.06
4588 H 173.63798772337927 169.6168180412281 40.73527365995844 H 0.0 **** 0.06
4589 H 173.6388677160467 167.8555611921983 40.99897978564378 H 0.0 **** 0.06
4590 H 175.1497049456502 168.69258048224796 40.56884274345258 H 0.0 **** 0.06
4591 C 118.21943143324602 117.37764252133248 134.4080705914327 C 0.0 **** -0.24
4592 H 118.56735742765498 116.87345051469994 133.50636759613604 H 0.0 **** 0.06
4593 H 118.02309588769482 116.63842670838302 135.18391056805905 H 0.0 **** 0.06
4594 H 117.30296551882965 117.92530786999028 134.1861127535803 H 0.0 **** 0.06
4595 H 118.98436426578475 118.07368284678891 134.7529067848016 H 0.0 **** 0.06
4596 C 25.27293083561392 31.905895355821144 9.50510137293918 C 0.0 **** -0.24
4597 H 26.212288018299887 32.44573350672789 9.386825381816777 H 0.0 **** 0.06
4598 H 25.457708158241303 30.963608083594067 10.020633519295131 H 0.0 **** 0.06
4599 H 24.84334775865392 31.70510323443773 8.523706822037013 H 0.0 **** 0.06
4600 H 24.578665730599937 32.509986262558584 10.088796920225093 H 0.0 **** 0.06
4601 C 104.9787676295398 165.61257183872573 29.680509296026315 C 0.0 **** -0.24
4602 H 105.71926690619752 166.02923096817312 28.9976334959524 H 0.0 **** 0.06
4603 H 105.33151422543646 165.71893206150853 30.706640730008218 H 0.0 **** 0.06
4604 H 104.83067756007394 164.55644593502802 29.4550813224283 H 0.0 **** 0.06
4605 H 104.03581857598915 166.14470106352542 29.563100249322503 H 0.0 **** 0.06
4606 C 136.3076501772934 18.64417430556614 18.358604059737445 C 0.0 **** -0.24
4607 H 135.87240203750224 18.037769224808017 17.563787528821877 H 0.0 **** 0.06
4608 H 136.9742272148339 18.028921135878818 18.962323311179347 H 0.0 **** 0.06
4609 H 135.51159833629544 19.04359040783541 18.98674385248725 H 0.0 **** 0.06
4610 H 136.87096318681392 19.467672815062883 17.918657421860928 H 0.0 **** 0.06
4611 C 68.28231381324665 5.73018974445813 30.558035305147143 C 0.0 **** -0.24
4612 H 68.87514585980429 5.300345283853687 31.365317327115974 H 0.0 **** 0.06
4613 H 68.10279941011743 4.971244374967284 29.795736217777403 H 0.0 **** 0.06
4614 H 68.82367351183255 6.567727758048875 30.117392444436007 H 0.0 **** 0.06
4615 H 67.33000909998864 6.080833047075458 30.953717410601712 H 0.0 **** 0.06
4616 C 129.7642876648158 173.05029819275276 96.65069843865349 C 0.0 **** -0.24
4617 H 128.72649855573547 172.86290272684815 96.37551293497584 H 0.0 **** 0.06
4618 H 129.83209618898553 173.1947497064842 97.72948069446905 H 0.0 **** 0.06
4619 H 130.11844660717713 173.9449137649095 96.14043014029026 H 0.0 **** 0.06
4620 H 130.37742752436372 172.1979245527375 96.35851690695232 H 0.0 **** 0.06
4621 C 41.43302590397644 139.44287169076892 162.52248205714926 C 0.0 **** -0.24
4622 H 42.26867056577839 140.03911359379424 162.15637285338252 H 0.0 **** 0.06
4623 H 40.496139639619685 139.95560684601963 162.3005154010022 H 0.0 **** 0.06
4624 H 41.52773447879929 139.30718436117002 163.60002676948736 H 0.0 **** 0.06
4625 H 41.43976760126907 138.46931070474085 162.0316410072558 H 0.0 **** 0.06
4626 C 57.4972754241487 169.21180600952775 119.57685952725906 C 0.0 **** -0.24
4627 H 58.26456172890519 168.92554529833046 118.85748139521287 H 0.0 **** 0.06
4628 H 56.52748490192096 169.24723311467488 119.07801116539251 H 0.0 **** 0.06
4629 H 57.73078931658404 170.19421870059543 119.98705085481329 H 0.0 **** 0.06
4630 H 57.46478356488693 168.47894946152672 120.38381240825358 H 0.0 **** 0.06
4631 C 150.74873901472762 96.63153702290327 58.84607424001203 C 0.0 **** -0.24
4632 H 151.04915304737017 95.60542636379506 59.06171219068243 H 0.0 **** 0.06
4633 H 150.880882567779 96.831683317628 57.782721096068116 H 0.0 **** 0.06
4634 H 151.36410382171871 97.31938361031405 59.42533546877533 H 0.0 **** 0.06
4635 H 149.7015638812946 96.76677176246591 59.114167758496606 H 0.0 **** 0.06
4636 C 69.35915938602372 156.8617354095287 10.188149293790161 C 0.0 **** -0.24
4637 H 69.95689805397824 157.33637244456023 10.966325709347984 H 0.0 **** 0.06
4638 H 68.31333367239199 157.1410214991676 10.31259686806004 H 0.0 **** 0.06
4639 H 69.4580587358057 155.77920641951152 10.26333737707023 H 0.0 **** 0.06
4640 H 69.71002079295263 157.19078679906602 9.210320676296192 H 0.0 **** 0.06
4641 C 90.74839138139997 139.31126185177897 78.16531541860184 C 0.0 **** -0.24
4642 H 91.21903924953669 139.9966858314645 77.45934094641069 H 0.0 **** 0.06
4643 H 90.83202391504925 139.71603488120235 79.17389350496023 H 0.0 **** 0.06
4644 H 91.24793839754848 138.34413965949528 78.11892813115497 H 0.0 **** 0.06
4645 H 89.69670464381481 139.19030903307214 77.90688212150798 H 0.0 **** 0.06
4646 C 7.783897142235247 32.53613976131106 41.77421974747807 C 0.0 **** -0.24
4647 H 8.841148305979857 32.62125747888754 41.522717623242585 H 0.0 **** 0.06
4648 H 7.44886440344888 31.514446453025528 41.59652281293447 H 0.0 **** 0.06
4649 H 7.206967321605049 33.2218891452317 41.15244553820355 H 0.0 **** 0.06
4650 H 7.639201204319562 32.78981106684324 42.82444844713518 H 0.0 **** 0.06
4651 C 102.52794106465755 70.14539496365998 163.99778429674615 C 0.0 **** -0.24
4652 H 102.9263923683162 71.14026975931364 164.19840852209023 H 0.0 **** 0.06
4653 H 103.15596591688602 69.3982665853568 164.48441595135756 H 0.0 **** 0.06
4654 H 102.5195910189416 69.96839945938841 162.92184087124065 H 0.0 **** 0.06
4655 H 101.51285957948984 70.07533534045436 164.3859692250973 H 0.0 **** 0.06
4656 C 6.864135909592115 141.9508990505882 119.55103635397843 C 0.0 **** -0.24
4657 H 6.484433209072563 141.6938373864026 118.56237083234602 H 0.0 **** 0.06
4658 H 7.825127661252957 142.45656229657908 119.45102172837407 H 0.0 **** 0.06
4659 H 6.991010017982674 141.0411954198977 120.1393812105867 H 0.0 **** 0.06
4660 H 6.156318514822061 142.6112483439034 120.05251787984066 H 0.0 **** 0.06
4661 C 35.25237447780876 110.72189581525487 83.26249091652149 C 0.0 **** -0.24
4662 H 34.716553393271056 109.8744128061295 83.68895504821347 H 0.0 **** 0.06
4663 H 35.40130437768562 111.48132443670738 84.03109449161815 H 0.0 **** 0.06
4664 H 34.671610925892196 111.14333377433871 82.44270187160411 H 0.0 **** 0.06
4665 H 36.220302529106334 110.38839746611592 82.88942861398763 H 0.0 **** 0.06
4666 C 132.94214685424782 118.38233892221079 80.45139662624521 C 0.0 **** -0.24
4667 H 132.40951324706356 117.61536175437722 79.88942258817025 H 0.0 **** 0.06
4668 H 133.36635467538508 119.11125008879252 79.75987755018107 H 0.0 **** 0.06
4669 H 133.7434409746984 117.9198166345095 81.02781941647393 H 0.0 **** 0.06
4670 H 132.24987094077704 118.88394293699419 81.12768120980046 H 0.0 **** 0.06
4671 C 45.33939636233964 43.167427869254084 7.04451872368719 C 0.0 **** -0.24
4672 H 45.75606378062321 43.30598396551247 6.047689353221301 H 0.0 **** 0.06
4673 H 45.10805497670455 44.139539069261815 7.480018830742154 H 0.0 **** 0.06
4674 H 46.064379003408476 42.64985487535594 7.67253044641177 H 0.0 **** 0.06
4675 H 44.42744981369407 42.5728135177028 6.977752959063423 H 0.0 **** 0.06
4676 C 119.52265819573405 70.99097192376382 185.44036001297673 C 0.0 **** -0.24
4677 H 118.85908214876501 71.69098190365622 185.94658939222944 H 0.0 **** 0.06
4678 H 120.5539059762131 71.19526148419442 185.72784592194733 H 0.0 **** 0.06
4679 H 119.41675405657948 71.10453546580959 184.36168722328907 H 0.0 **** 0.06
4680 H 119.26077600054784 69.9714456404177 185.72484772373843 H 0.0 **** 0.06
4681 C 41.59942569164234 155.16301526079633 91.1290761151559 C 0.0 **** -0.24
4682 H 41.26277486409205 155.37062066116022 90.11334899525849 H 0.0 **** 0.06
4683 H 41.939656347492274 156.08838483021637 91.5956301468342 H 0.0 **** 0.06
4684 H 42.420132671606055 154.4465810349917 91.1001554342032 H 0.0 **** 0.06
4685 H 40.773950368302806 154.74667688693995 91.70643060922549 H 0.0 **** 0.06
4686 C 103.20304148128668 161.99435767061675 184.79268987658023 C 0.0 **** -0.24
4687 H 102.7082670372364 161.1857669914822 184.25510107973088 H 0.0 **** 0.06
4688 H 103.39825163950519 161.6817618123591 185.81903543928945 H 0.0 **** 0.06
4689 H 102.55928373188789 162.87482533792112 184.79681889040012 H 0.0 **** 0.06
4690 H 104.14440443470096 162.23603035614295 184.30030644948783 H 0.0 **** 0.06
4691 C 60.184890408580046 111.69695608021642 97.70542178812128 C 0.0 **** -0.24
4692 H 59.138725606613264 111.8414303244286 97.435126079115 H 0.0 **** 0.06
4693 H 60.57151861429702 112.6094625621865 98.15951199963403 H 0.0 **** 0.06
4694 H 60.76198659275971 111.462048403878 96.81171897847607 H 0.0 **** 0.06
4695 H 60.265775153661906 110.87449379251048 98.4168884654611 H 0.0 **** 0.06
4696 C 169.90419802828558 114.6049638667281 71.17594914852165 C 0.0 **** -0.24
4697 H 170.28641609007263 115.32127855451591 71.9035871066957 H 0.0 **** 0.06
4698 H 168.91753826087182 114.92310122275825 70.83800905129439 H 0.0 **** 0.06
4699 H 169.8313544687582 113.62146061915956 71.6387812010622 H 0.0 **** 0.06
4700 H 170.5828359386403 114.55702147187839 70.32378279170248 H 0.0 **** 0.06
4701 C 84.5708747007737 109.71482109356167 28.87724827465513 C 0.0 **** -0.24
4702 H 85.1141932339095 109.66779545957569 27.933460202300864 H 0.0 **** 0.06
4703 H 84.52152785676884 108.71826964817409 29.316672309368187 H 0.0 **** 0.06
4704 H 83.56043771758766 110.0831509097775 28.69751059410885 H 0.0 **** 0.06
4705 H 85.08779950308887 110.38861171846592 29.56053321178092 H 0.0 **** 0.06
4706 C 171.40440399119018 133.9636711654556 148.87331897688534 C 0.0 **** -0.24
4707 H 170.8692093309809 133.8583040569905 147.92976410054314 H 0.0 **** 0.06
4708 H 170.87360082015448 133.4182497928694 149.6540973716211 H 0.0 **** 0.06
4709 H 171.46309788245907 135.0187080665387 149.14132557094206 H 0.0 **** 0.06
4710 H 172.4109476516194 133.55929903547985 148.76690281203747 H 0.0 **** 0.06
4711 C 128.66825686165924 85.31430135681639 43.26835408930481 C 0.0 **** -0.24
4712 H 129.23448663046048 84.8149189932481 42.48252875710534 H 0.0 **** 0.06
4713 H 127.8098482839668 84.7021277358344 43.5436748440016 H 0.0 **** 0.06
4714 H 128.32291366457764 86.28320990234333 42.90697522556036 H 0.0 **** 0.06
4715 H 129.3069681163883 85.45908969844957 44.14028623064789 H 0.0 **** 0.06
4716 C 41.34419429853166 97.77940579971654 71.17969605816153 C 0.0 **** -0.24
4717 H 41.5537131538793 97.56708151142873 70.13157412099368 H 0.0 **** 0.06
4718 H 40.37611158872035 97.35653700298808 71.44993897473422 H 0.0 **** 0.06
4719 H 41.32617952284647 98.85873037863912 71.33451631659982 H 0.0 **** 0.06
4720 H 42.12055187269614 97.336195732679 71.80243524013643 H 0.0 **** 0.06
4721 C 174.58356196737577 170.11262599294264 131.27743496145678 C 0.0 **** -0.24
4722 H 174.88472648411096 169.23088818387714 130.71255823860292 H 0.0 **** 0.06
4723 H 175.19971563514403 170.9623200393071 130.9805897340558 H 0.0 **** 0.06
4724 H 174.7131277770634 169.92353581493506 132.34243258382634 H 0.0 **** 0.06
4725 H 173.53586604343624 170.33509959331997 131.0722761456023 H 0.0 **** 0.06
4726 C 96.38009535968261 165.42712507232903 171.58644338513102 C 0.0 **** -0.24
4727 H 96.48686128196546 164.34292147076079 171.59623746406646 H 0.0 **** 0.06
4728 H 95.40126487301104 165.69168098311658 171.18583831333612 H 0.0 **** 0.06
4729 H 97.1584083275835 165.86343190669047 170.95997818605582 H 0.0 **** 0.06
4730 H 96.47333717349677 165.81082855600968 172.60245124251804 H 0.0 **** 0.06
4731 C 122.36860240672202 54.03447896907437 161.25226256432788 C 0.0 **** -0.24
4732 H 122.90785038483874 53.1157915787972 161.48163440779925 H 0.0 **** 0.06
4733 H 123.020853484135 54.709865484688976 160.69862102899447 H 0.0 **** 0.06
4734 H 122.05322533960766 54.51142077175547 162.18021470957538 H 0.0 **** 0.06
4735 H 121.49176568156496 53.79932916687136 160.64811910743785 H 0.0 **** 0.06
4736 C 123.12844707590813 38.811950032927484 137.375759851522 C 0.0 **** -0.24
4737 H 122.18726706788908 38.42735129055586 136.98262454685857 H 0.0 **** 0.06
4738 H 123.22192890984843 38.53771711364459 138.42747457709208 H 0.0 **** 0.06
4739 H 123.14522570823317 39.89759040449064 137.2801417423454 H 0.0 **** 0.06
4740 H 123.95841459145845 38.38419825560726 136.8132505568227 H 0.0 **** 0.06
4741 C 86.5055047559341 24.005279949840627 10.88752217514466 C 0.0 **** -0.24
4742 H 85.80529711140117 24.80970887010713 10.664749413426485 H 0.0 **** 0.06
4743 H 87.14035109976247 24.297058612964122 11.724279428034755 H 0.0 **** 0.06
4744 H 87.12484395130367 23.80956032308208 10.012654109823359 H 0.0 **** 0.06
4745 H 85.95170168528954 23.10336633113691 11.150119531016806 H 0.0 **** 0.06
4746 C 85.78922390028136 94.52287889523497 162.0446645741061 C 0.0 **** -0.24
4747 H 85.74306357301107 94.1295535564207 161.0288994546434 H 0.0 **** 0.06
4748 H 86.73866980531464 95.03751382812034 162.1930651396807 H 0.0 **** 0.06
4749 H 85.70572572870599 93.70114475831512 162.7564225698393 H 0.0 **** 0.06
4750 H 84.96772467228328 95.2219912353326 162.2008609742768 H 0.0 **** 0.06
4751 C 181.4709041381616 144.86372432758498 62.81099065145254 C 0.0 **** -0.24
4752 H 180.77024241812947 144.0504802209059 62.99743773345372 H 0.0 **** 0.06
4753 H 181.0276416624293 145.5716111502412 62.11108139216908 H 0.0 **** 0.06
4754 H 182.39130621400042 144.4607307180493 62.386175891968094 H 0.0 **** 0.06
4755 H 181.69610614761865 145.3709949017404 63.74916280267682 H 0.0 **** 0.06
4756 C 32.936790004913036 4.390165793692034 13.285999147112392 C 0.0 **** -0.24
4757 H 33.09971135501581 5.388994435295444 12.878950764467675 H 0.0 **** 0.06
4758 H 33.47177023050435 4.290427768589922 14.22978451341794 H 0.0 **** 0.06
4759 H 33.303801242160546 3.6461662779007042 12.578026076311232 H 0.0 **** 0.06
4760 H 31.87098865518601 4.236171255365633 13.4539173471818 H 0.0 **** 0.06
4761 C 177.88576819524536 169.24343825966207 168.4295828034252 C 0.0 **** -0.24
4762 H 178.30219274068415 168.4345321257181 169.02936010547918 H 0.0 **** 0.06
4763 H 176.8411285426863 169.02830717072553 168.20432743983704 H 0.0 **** 0.06
4764 H 178.4469137306889 169.33166624400894 167.49920015179225 H 0.0 **** 0.06
4765 H 177.9530893707826 170.17823301547406 168.98449085204754 H 0.0 **** 0.06
4766 C 145.42489551283256 34.490542141545205 166.12104857410665 C 0.0 **** -0.24
4767 H 145.37943897122244 34.42476309520538 167.2087182002537 H 0.0 **** 0.06
4768 H 146.04689007597733 33.684191348641974 165.73394200419696 H 0.0 **** 0.06
4769 H 145.8525391313218 35.45102231759404 165.83394384845627 H 0.0 **** 0.06
4770 H 144.41937659028304 34.403510945248456 165.70970489277747 H 0.0 **** 0.06
4771 C 140.53075096199967 23.287863982055597 107.56088404916646 C 0.0 **** -0.24
4772 H 141.53692077400808 23.20771804282876 107.97134388970254 H 0.0 **** 0.06
4773 H 140.5860148373631 23.333471447041234 106.4729887233235 H 0.0 **** 0.06
4774 H 140.0551483398043 24.19186933924226 107.93947061757406 H 0.0 **** 0.06
4775 H 139.94712940215783 22.41741398267132 107.85934345800074 H 0.0 **** 0.06
4776 C 122.90491536248753 5.532465925387953 181.14932670985218 C 0.0 **** -0.24
4777 H 123.93166670227744 5.789740886252723 180.88892193479325 H 0.0 **** 0.06
4778 H 122.35204668551562 5.280386369314407 180.24335787305318 H 0.0 **** 0.06
4779 H 122.429863917498 6.382383977003613 181.63955094386085 H 0.0 **** 0.06
4780 H 122.90458586719781 4.676561579558317 181.82511590342295 H 0.0 **** 0.06
4781 C 77.62001489605066 105.78094604599562 102.18392990244406 C 0.0 **** -0.24
4782 H 78.4233626627594 105.74884503121751 102.92101422128191 H 0.0 **** 0.06
4783 H 77.48206379920138 104.7884624453514 101.75533201180416 H 0.0 **** 0.06
4784 H 77.88024483686382 106.48583449235792 101.39480000197166 H 0.0 **** 0.06
4785 H 76.69678847092547 106.09998540751582 102.66800967477279 H 0.0 **** 0.06
4786 C 138.34743837291097 97.78809076214996 148.03083873839097 C 0.0 **** -0.24
4787 H 138.07068292197698 96.97467188374479 147.35926629977456 H 0.0 **** 0.06
4788 H 137.46571889145707 98.38989083865026 148.2544585589627 H 0.0 **** 0.06
4789 H 139.1018980226679 98.41306507131769 147.55239007014177 H 0.0 **** 0.06
4790 H 138.75050646667626 97.3746255834212 148.9554819279065 H 0.0 **** 0.06
4791 C 138.72087276299976 56.70615876830138 26.06142534776646 C 0.0 **** -0.24
4792 H 139.7524178899278 56.393143705644036 25.896833091294297 H 0.0 **** 0.06
4793 H 138.0446207733067 55.921960541145594 25.718712945669097 H 0.0 **** 0.06
4794 H 138.52596783224135 57.622686819927125 25.504354645219223 H 0.0 **** 0.06
4795 H 138.5606381624154 56.88534577410185 27.124484728714464 H 0.0 **** 0.06
4796 C 39.88361117420884 172.1804436677707 118.27372565903426 C 0.0 **** -0.24
4797 H 38.95913168534911 172.5342850601644 117.81775164779117 H 0.0 **** 0.06
4798 H 39.64989709150508 171.60606585990288 119.1708294740306 H 0.0 **** 0.06
4799 H 40.50660016970336 173.03318839499207 118.54029921664716 H 0.0 **** 0.06
4800 H 40.417474659787246 171.5464555714193 117.56620659805935 H 0.0 **** 0.06
4801 C 28.483486979180896 33.869232121611674 151.86469258191994 C 0.0 **** -0.24
4802 H 28.028276476823464 34.85884138920743 151.8909839837308 H 0.0 **** 0.06
4803 H 28.22149743611118 33.32445166934734 152.77208451390857 H 0.0 **** 0.06
4804 H 29.567216187641208 33.96904913404066 151.80110847063332 H 0.0 **** 0.06
4805 H 28.11788708763993 33.32422545661609 150.99467257871322 H 0.0 **** 0.06
4806 C 110.06163741770617 41.26012466373808 94.3664698335764 C 0.0 **** -0.24
4807 H 109.02557159657606 41.086521999866804 94.65980433547988 H 0.0 **** 0.06
4808 H 110.72352600964923 40.96879135332999 95.18269883605937 H 0.0 **** 0.06
4809 H 110.20240354002827 42.31768529101713 94.14347032998721 H 0.0 **** 0.06
4810 H 110.29181277672409 40.6680092302867 93.48141280080087 H 0.0 **** 0.06
4811 C 21.149733477819154 176.44439939240124 129.2966625803877 C 0.0 **** -0.24
4812 H 20.4321407940401 176.8727637913212 129.99563254953569 H 0.0 **** 0.06
4813 H 22.16021326197763 176.7240712783193 129.59503250247275 H 0.0 **** 0.06
4814 H 20.949845801653325 176.82129515123904 128.29394933586997 H 0.0 **** 0.06
4815 H 21.057691165235227 175.35836126752795 129.30110825061348 H 0.0 **** 0.06
4816 C 165.74232176201238 29.636866996809317 12.538993626957883 C 0.0 **** -0.24
4817 H 165.1297072450953 30.053519847950582 11.738904730858671 H 0.0 **** 0.06
4818 H 166.1545003120949 30.44783306714089 13.140041259408356 H 0.0 **** 0.06
4819 H 166.55676432713213 29.05469394925393 12.107024609242352 H 0.0 **** 0.06
4820 H 165.12865055442512 28.99294185394359 13.168399223392626 H 0.0 **** 0.06
4821 C 3.0231154867813146 146.6667558885523 119.23350260252779 C 0.0 **** -0.24
4822 H 2.5440636923661657 145.9475107572929 119.8983628893332 H 0.0 **** 0.06
4823 H 4.105840819476384 146.54721291652373 119.2873981430531 H 0.0 **** 0.06
4824 H 2.753782139442542 147.67791878072023 119.53871649118777 H 0.0 **** 0.06
4825 H 2.688129797859254 146.49500644593877 118.20997140577099 H 0.0 **** 0.06
4826 C 44.13386125568178 1.278442880571781 157.84404783503152 C 0.0 **** -0.24
4827 H 45.160430188586645 1.1768886320414111 157.49112243366346 H 0.0 **** 0.06
4828 H 43.655034494322365 2.1129488571183686 157.32993197493192 H 0.0 **** 0.06
4829 H 44.13510836723739 1.4647831969396137 158.91774894846748 H 0.0 **** 0.06
4830 H 43.58525803960514 0.36007247110245544 157.63515153730555 H 0.0 **** 0.06
4831 C 116.82721750347594 106.9709572146786 143.36593516949878 C 0.0 **** -0.24
4832 H 117.57563720644964 107.43653894015296 144.00747704461594 H 0.0 **** 0.06
4833 H 117.25479989437633 106.08732188929298 142.89200133694962 H 0.0 **** 0.06
4834 H 116.51444407880774 107.68005362355632 142.5994141760711 H 0.0 **** 0.06
4835 H 115.96492925723618 106.68036571415018 143.96623087105303 H 0.0 **** 0.06
4836 C 137.34738413008137 141.21936747844325 100.78130693368887 C 0.0 **** -0.24
4837 H 136.4208193963102 141.06123988007516 100.23009390617001 H 0.0 **** 0.06
4838 H 137.13589758316238 141.78332086430652 101.69056180289392 H 0.0 **** 0.06
4839 H 138.04812978357512 141.77851818534305 100.16112277978759 H 0.0 **** 0.06
4840 H 137.78331815874458 140.25575572821464 101.04395549651808 H 0.0 **** 0.06
4841 C 85.02580146447856 4.248138819587211 126.33477677116002 C 0.0 **** -0.24
4842 H 85.90263240818699 4.809870838170582 126.01175972233136 H 0.0 **** 0.06
4843 H 84.74865319362917 3.5318270633103452 125.56043789062227 H 0.0 **** 0.06
4844 H 84.19866798333703 4.935470802540948 126.50854753946709 H 0.0 **** 0.06
4845 H 85.25680606165825 3.7150843258009445 127.25783320582724 H 0.0 **** 0.06
4846 C 96.67505927744803 156.12096852718156 137.73688112728485 C 0.0 **** -0.24
4847 H 97.4408472654837 155.42085258743455 138.0715717368078 H 0.0 **** 0.06
4848 H 96.27364281393123 156.65881793305746 138.59545330789962 H 0.0 **** 0.06
4849 H 95.87240952341175 155.57165375451387 137.2439744048075 H 0.0 **** 0.06
4850 H 97.11404450649671 156.8307950150476 137.03533305011757 H 0.0 **** 0.06
4851 C 68.95154224901505 7.603172532806575 3.282733452488401 C 0.0 **** -0.24
4852 H 68.24922796822811 8.118232594306392 3.9376846966498817 H 0.0 **** 0.06
4853 H 68.63845183336004 7.727518165899184 2.2453323933104343 H 0.0 **** 0.06
4854 H 68.97042360152854 6.542123301616023 3.5327962482970463 H 0.0 **** 0.06
4855 H 69.94806559294337 8.024816069404658 3.4151204716958716 H 0.0 **** 0.06
4856 C 35.364583681365644 185.40838059716538 90.0988931563407 C 0.0 **** -0.24
4857 H 35.92266142394399 184.53424217494617 90.43698435566989 H 0.0 **** 0.06
4858 H 36.05364677190941 186.13423586960323 89.66793083008224 H 0.0 **** 0.06
4859 H 34.845341179337 185.85672711945824 90.94590377143288 H 0.0 **** 0.06
4860 H 34.63735791479773 185.10488040664922 89.34607134984316 H 0.0 **** 0.06
4861 C 170.76979024505374 18.261974717824984 137.0704819276458 C 0.0 **** -0.24
4862 H 170.1987651877313 17.954403292324464 136.19413406348292 H 0.0 **** 0.06
4863 H 170.231525823472 19.052191910252084 137.59481253804256 H 0.0 **** 0.06
4864 H 171.74507094951394 18.631653916183815 136.75748329471185 H 0.0 **** 0.06
4865 H 170.8999494138289 17.407867114633852 137.73555423386273 H 0.0 **** 0.06
4866 C 134.44751433438512 57.03467314539495 77.63498109788475 C 0.0 **** -0.24
4867 H 134.8518211060288 56.06590056133315 77.92993550072077 H 0.0 **** 0.06
4868 H 133.62218473540457 57.299921520679135 78.29676788372728 H 0.0 **** 0.06
4869 H 134.08832361188905 56.981345073419774 76.60810600268292 H 0.0 **** 0.06
4870 H 135.22915826874208 57.79122739801467 77.70855964159585 H 0.0 **** 0.06
4871 C 65.5616731227421 26.69395456686935 173.49373202593213 C 0.0 **** -0.24
4872 H 64.95750129949292 27.58493313223788 173.6639582309471 H 0.0 **** 0.06
4873 H 64.95554317638073 25.933157802663345 173.00105347396942 H 0.0 **** 0.06
4874 H 65.92042611577101 26.309683064954882 174.44853989359993 H 0.0 **** 0.06
4875 H 66.41219946864923 26.94715596752816 172.86096955571833 H 0.0 **** 0.06
4876 C 152.88831442880482 151.47009880304205 154.66416602569637 C 0.0 **** -0.24
4877 H 153.86696780820736 151.9172129237935 154.4922012965873 H 0.0 **** 0.06
4878 H 152.64160129854304 151.5319656617506 155.7245968408439 H 0.0 **** 0.06
4879 H 152.90693132130667 150.42452668235978 154.35595874756996 H 0.0 **** 0.06
4880 H 152.13775728716217 152.00668994426422 154.08390721778426 H 0.0 **** 0.06
4881 C 40.778038623062216 45.887946064059705 77.942778916412 C 0.0 **** -0.24
4882 H 40.26449736462904 46.84634750352514 78.01591856170269 H 0.0 **** 0.06
4883 H 41.823441083799736 46.0131397913305 78.22740784120215 H 0.0 **** 0.06
4884 H 40.721943627879156 45.523471849392166 76.91638265006516 H 0.0 **** 0.06
4885 H 40.302632567558305 45.16986529374748 78.61051871507358 H 0.0 **** 0.06
4886 C 130.04379480493986 11.454912021196783 73.60044724355544 C 0.0 **** -0.24
4887 H 129.13817983896166 11.296149058469013 74.187052947251 H 0.0 **** 0.06
4888 H 130.78880672463282 11.961877310572042 74.21354984050163 H 0.0 **** 0.06
4889 H 129.80907227832785 12.067688252566874 72.73071512253694 H 0.0 **** 0.06
4890 H 130.4369107785809 10.492437570290079 73.27216818583133 H 0.0 **** 0.06
4891 C 122.74150625128772 81.82928863349167 14.939695852703835 C 0.0 **** -0.24
4892 H 122.14303403018522 82.17714604525759 14.097260927110767 H 0.0 **** 0.06
4893 H 122.14450207887955 81.87269354830369 15.85106702534776 H 0.0 **** 0.06
4894 H 123.61977312714913 82.46596295776635 15.048376453941273 H 0.0 **** 0.06
4895 H 123.05771492242161 80.80207541752941 14.760214849972897 H 0.0 **** 0.06
4896 C 85.06056426938132 147.3763376091233 126.44382364363044 C 0.0 **** -0.24
4897 H 85.78273562196749 148.18500575982284 126.33599647607456 H 0.0 **** 0.06
4898 H 85.36494653852647 146.72315232069468 127.26202948124283 H 0.0 **** 0.06
4899 H 85.01712829601313 146.8021517303158 125.51756110443525 H 0.0 **** 0.06
4900 H 84.07701131424494 147.79299982577066 126.6589039162286 H 0.0 **** 0.06
4901 C 48.016807813777206 26.06818186557001 108.58508368438794 C 0.0 **** -0.24
4902 H 48.462401900341376 27.048855197489445 108.75627108408514 H 0.0 **** 0.06
4903 H 47.07980889008917 25.993793655136074 109.13730264719868 H 0.0 **** 0.06
4904 H 48.70250921694651 25.2932840007781 108.92707379521374 H 0.0 **** 0.06
4905 H 47.82353333456132 25.938727159048824 107.5201570109262 H 0.0 **** 0.06
4906 C 162.40952673846039 155.1181573480933 7.57740681297588 C 0.0 **** -0.24
4907 H 161.78967107669249 155.10476012023895 8.473985777622481 H 0.0 **** 0.06
4908 H 163.05661993057274 154.24019045353617 7.571087563569478 H 0.0 **** 0.06
4909 H 163.02108816828508 156.02058676243297 7.572008604841763 H 0.0 **** 0.06
4910 H 161.7719804740542 155.10531794998673 6.693678199899821 H 0.0 **** 0.06
4911 C 156.93795568377368 72.6299158411796 93.82010495757835 C 0.0 **** -0.24
4912 H 157.8317128383519 72.9537155839577 94.35397221850327 H 0.0 **** 0.06
4913 H 156.1583134079366 73.38412141563246 93.92687216020435 H 0.0 **** 0.06
4914 H 156.58936146086756 71.6843451596096 94.23518628996426 H 0.0 **** 0.06
4915 H 157.1737023050493 72.49798614260193 92.7640162049456 H 0.0 **** 0.06
4916 C 179.8175545287733 141.34598468334383 101.24075980050048 C 0.0 **** -0.24
4917 H 179.04482455197726 140.80186377515327 100.69714670454692 H 0.0 **** 0.06
4918 H 180.2743029439601 140.68730794820783 101.97897669995109 H 0.0 **** 0.06
4919 H 179.37080405806338 142.2039568398909 101.74469848441737 H 0.0 **** 0.06
4920 H 180.57862039008103 141.69241317853556 100.5414083715055 H 0.0 **** 0.06
4921 C 21.617803819429696 99.88944434592612 34.52196993384774 C 0.0 **** -0.24
4922 H 22.118458678634852 100.09750836701313 35.46766356434421 H 0.0 **** 0.06
4923 H 21.74600059238648 100.73748556665883 33.84858589624389 H 0.0 **** 0.06
4924 H 20.555571689163457 99.7247936295726 34.70197937814342 H 0.0 **** 0.06
4925 H 22.05193024779038 98.99776035839399 34.07027616454474 H 0.0 **** 0.06
4926 C 164.5221636682711 47.7870817782632 172.71188876717034 C 0.0 **** -0.24
4927 H 164.98175430815053 48.641914699818074 173.20832959038233 H 0.0 **** 0.06
4928 H 165.30098966162595 47.101046999889206 172.37603647028638 H 0.0 **** 0.06
4929 H 163.94674976027673 48.13174683462813 171.8534884158634 H 0.0 **** 0.06
4930 H 163.86152976619923 47.27402303859003 173.4101751838685 H 0.0 **** 0.06
4931 C 92.70715534369248 180.1903133878214 171.45248766758425 C 0.0 **** -0.24
4932 H 92.80474228643283 179.17426661819252 171.8331306507985 H 0.0 **** 0.06
4933 H 92.09333272878808 180.18327080979668 170.55093866712733 H 0.0 **** 0.06
4934 H 93.69469802721795 180.58657925045924 171.21692203118633 H 0.0 **** 0.06
4935 H 92.23521888581996 180.8179105711264 172.20888712176588 H 0.0 **** 0.06
4936 C 120.33687375225382 46.245231210235204 49.826866890706015 C 0.0 **** -0.24
4937 H 120.89409960643495 45.92293318000128 48.94667673210009 H 0.0 **** 0.06
4938 H 119.27497966805574 46.29146590895131 49.58752269584936 H 0.0 **** 0.06
4939 H 120.68404649378463 47.2317686710071 50.134241732333436 H 0.0 **** 0.06
4940 H 120.49721519556125 45.5351244644492 50.63769756180838 H 0.0 **** 0.06
4941 C 30.183834091801756 123.81868829144419 50.82394451487555 C 0.0 **** -0.24
4942 H 30.726874072498518 124.2459672664019 51.6669893666958 H 0.0 **** 0.06
4943 H 30.809519206747154 123.86016516897546 49.9313633066332 H 0.0 **** 0.06
4944 H 29.269927267573664 124.3886760055969 50.6539042008733 H 0.0 **** 0.06
4945 H 29.930410504442776 122.78165289229024 51.0431508559938 H 0.0 **** 0.06
4946 C 51.89152998271712 77.75521624892971 26.847356639833635 C 0.0 **** -0.24
4947 H 52.213861136876886 78.78866407325067 26.980238621122865 H 0.0 **** 0.06
4948 H 52.02107500727112 77.21141667708741 27.783332326793314 H 0.0 **** 0.06
4949 H 52.492250043902516 77.28566390678861 26.06820878669859 H 0.0 **** 0.06
4950 H 50.841234094130954 77.73677705226864 26.558628611899934 H 0.0 **** 0.06
4951 C 84.3845533062004 64.84674734471578 168.29657858663597 C 0.0 **** -0.24
4952 H 83.30669578917411 64.88475158073943 168.1381922888354 H 0.0 **** 0.06
4953 H 84.61273476504721 64.10534979023625 169.06178001810218 H 0.0 **** 0.06
4954 H 84.73818597671101 65.8251883344762 168.62252879844715 H 0.0 **** 0.06
4955 H 84.87911452021969 64.57348729754253 167.3645927984228 H 0.0 **** 0.06
4956 C 17.72551196170793 138.5609669322787 0.022608714520856665 C 0.0 **** -0.24
4957 H 18.475317293364753 137.77895025197898 0.14268053213993426 H 0.0 **** 0.06
4958 H 18.03308941315666 139.23978372845812 -0.7734310180695445 H 0.0 **** 0.06
4959 H 17.626778732861176 139.11570387958915 0.9548629686806862 H 0.0 **** 0.06
4960 H 16.767817332717946 138.10836370030336 -0.23507458591015506 H 0.0 **** 0.06
4961 C 24.20039709946056 24.671193724433977 166.54986705790037 C 0.0 **** -0.24
4962 H 23.390644072867858 25.107902869179554 165.96485805318903 H 0.0 **** 0.06
4963 H 25.123640475663805 24.701869597155934 165.97108296387196 H 0.0 **** 0.06
4964 H 23.956991424680837 23.637217079757306 166.79183463696882 H 0.0 **** 0.06
4965 H 24.329978192576704 25.239156053971612 167.47068781978695 H 0.0 **** 0.06
4966 C 48.6240957036884 84.3975990713219 59.52269699658922 C 0.0 **** -0.24
4967 H 48.72522793308957 85.04010334816343 60.397220228369974 H 0.0 **** 0.06
4968 H 47.56799041892867 84.28157692512792 59.278183469802855 H 0.0 **** 0.06
4969 H 49.057729025995116 83.42108861230224 59.736775982197486 H 0.0 **** 0.06
4970 H 49.14597092742159 84.84979842260276 58.67860257579916 H 0.0 **** 0.06
4971 C 129.57269332739708 147.26695304878209 66.65793197839139 C 0.0 **** -0.24
4972 H 130.6392930668577 147.15611211182068 66.84853523107557 H 0.0 **** 0.06
4973 H 129.42420556762238 147.81228726749234 65.725138660504 H 0.0 **** 0.06
4974 H 129.11210303378272 147.81858883891758 67.478235538283 H 0.0 **** 0.06
4975 H 129.11303247332427 146.2814674372941 66.57971827115415 H 0.0 **** 0.06
4976 C 76.27792832454077 77.56716151964747 134.46503537156076 C 0.0 **** -0.24
4977 H 75.36646639217724 77.75098153672774 133.8951312207824 H 0.0 **** 0.06
4978 H 76.2783976005548 78.18917428281948 135.35955325274472 H 0.0 **** 0.06
4979 H 77.14510053228844 77.81154000760262 133.85029158962158 H 0.0 **** 0.06
4980 H 76.32084463143315 76.51654792960346 134.75169829370475 H 0.0 **** 0.06
4981 C 28.41807045690757 158.53234984225236 95.62013603781729 C 0.0 **** -0.24
4982 H 27.82296510118948 157.73451502560312 95.17649252153846 H 0.0 **** 0.06
4983 H 28.75776107738008 159.21023567661052 94.83615103988605 H 0.0 **** 0.06
4984 H 29.280855335411104 158.1017678057924 96.1281524952493 H 0.0 **** 0.06
4985 H 27.810176076244773 159.08260892493297 96.33846307500535 H 0.0 **** 0.06
4986 C 109.82232151873019 181.52648805949542 50.886095701016615 C 0.0 **** -0.24
4987 H 109.14911884186726 182.10254978045572 51.52127868467062 H 0.0 **** 0.06
4988 H 109.28291523106459 180.68023368222117 50.4591545098844 H 0.0 **** 0.06
4989 H 110.66010414032401 181.1619481266742 51.481063175508154 H 0.0 **** 0.06
4990 H 110.19558813676879 182.1616058448821 50.08353370229486 H 0.0 **** 0.06
4991 C 171.17395143486522 20.079273809622578 27.07059421794129 C 0.0 **** -0.24
4992 H 171.24178539709612 20.547922804054508 26.088961888493785 H 0.0 **** 0.06
4993 H 171.37753667243555 19.011990028084 26.97930477144088 H 0.0 **** 0.06
4994 H 170.1714822368317 20.22514061668241 27.474108490462157 H 0.0 **** 0.06
4995 H 171.9045542616699 20.533339012756358 27.74105875690313 H 0.0 **** 0.06
4996 C 90.56501412059863 182.03390921098708 175.0772325262817 C 0.0 **** -0.24
4997 H 91.38767317157802 181.46517167732316 174.6442844274346 H 0.0 **** 0.06
4998 H 90.70893631854362 182.11929365543256 176.15462116429717 H 0.0 **** 0.06
4999 H 89.62406571398459 181.52236370356923 174.8764698927564 H 0.0 **** 0.06
5000 H 90.53938127828825 183.02880780762354 174.63355462063865 H 0.0 **** 0.06
5001 C 175.0556535905984 53.61697024965741 23.689101592084796 C 0.0 **** -0.24
5002 H 175.03245259256852 52.6750613776301 23.140486272650378 H 0.0 **** 0.06
5003 H 176.09020203539916 53.882999092896796 23.90913242421567 H 0.0 **** 0.06
5004 H 174.50148244735556 53.50833833020948 24.62172682656211 H 0.0 **** 0.06
5005 H 174.5997496824267 54.40108877878737 23.08458515499632 H 0.0 **** 0.06
5006 C 141.124089170527 127.9757410465589 75.80364519136474 C 0.0 **** -0.24
5007 H 141.6155772926187 128.2323700511797 74.86551496141014 H 0.0 **** 0.06
5008 H 140.85832319585876 126.91828004992881 75.7959594504356 H 0.0 **** 0.06
5009 H 140.22142870767493 128.57729482243792 75.91704952055723 H 0.0 **** 0.06
5010 H 141.80051251045484 128.17504805318026 76.63520009735798 H 0.0 **** 0.06
5011 C 54.274530011693 39.97099593217101 126.13061297996317 C 0.0 **** -0.24
5012 H 53.85723320449051 39.556899101749295 125.21171004725012 H 0.0 **** 0.06
5013 H 53.46577247925407 40.330213908530226 126.76660908877734 H 0.0 **** 0.06
5014 H 54.9408640797584 40.797447024280885 125.88628567672008 H 0.0 **** 0.06
5015 H 54.83286579390608 39.19647756668985 126.65531650589132 H 0.0 **** 0.06
5016 C 162.60642647514442 30.609433214676926 176.501103110729 C 0.0 **** -0.24
5017 H 161.8502154021749 30.212476942773165 177.1787939762246 H 0.0 **** 0.06
5018 H 163.29120964297647 29.811178954964163 176.21356610309937 H 0.0 **** 0.06
5019 H 163.1618995586265 31.402103459773812 177.0022247494055 H 0.0 **** 0.06
5020 H 162.1215159579515 31.010794050258625 175.61179236161348 H 0.0 **** 0.06
5021 C 119.66023143181395 140.9249238954933 98.0246427560261 C 0.0 **** -0.24
5022 H 119.92342603057067 141.65385031945965 98.79244760425026 H 0.0 **** 0.06
5023 H 120.05831112110424 139.9482613588853 98.30004467285535 H 0.0 **** 0.06
5024 H 120.08298521421513 141.234832525583 97.0692087019283 H 0.0 **** 0.06
5025 H 118.57502151306049 140.86437974445215 97.94002472467973 H 0.0 **** 0.06
5026 C 14.522610980747459 156.52228932773033 31.163983407494584 C 0.0 **** -0.24
5027 H 14.147440280816795 156.26808463115233 32.1558212502982 H 0.0 **** 0.06
5028 H 15.191161181851271 155.73448520095877 30.816753438766483 H 0.0 **** 0.06
5029 H 15.066242483746294 157.46580012702918 31.212475919383508 H 0.0 **** 0.06
5030 H 13.684996264774838 156.6196805303828 30.474109594795294 H 0.0 **** 0.06
5031 C 85.92598041504971 32.150494791635396 17.96676136234271 C 0.0 **** -0.24
5032 H 85.57380852360268 31.12186984586573 18.03789517719406 H 0.0 **** 0.06
5033 H 85.07165660436846 32.82637284608458 17.939283575632487 H 0.0 **** 0.06
5034 H 86.51384578155029 32.27091821340707 17.055878320766624 H 0.0 **** 0.06
5035 H 86.54647498897043 32.38332313782634 18.83248176917533 H 0.0 **** 0.06
5036 C 173.76909179183252 151.3433307166548 181.47383145251305 C 0.0 **** -0.24
5037 H 174.55391729921953 150.63107217190964 181.72777444399387 H 0.0 **** 0.06
5038 H 172.99309594816071 151.3186253036061 182.23960915094358 H 0.0 **** 0.06
5039 H 173.33660476594645 151.07815820697 180.5089128632739 H 0.0 **** 0.06
5040 H 174.1939324766193 152.34612290506772 181.41861725103672 H 0.0 **** 0.06
5041 C 179.38938092554983 117.40619153958873 117.65114110825999 C 0.0 **** -0.24
5042 H 178.51006701060666 116.90821248222692 118.05838824950564 H 0.0 **** 0.06
5043 H 179.1732105323013 118.46432250016328 117.50761561711386 H 0.0 **** 0.06
5044 H 179.65184849582909 116.95541013570086 116.69466516243244 H 0.0 **** 0.06
5045 H 180.2228663118818 117.29577870867102 118.3451969367976 H 0.0 **** 0.06
5046 C 142.04956111334747 159.2721442604745 50.96879539306855 C 0.0 **** -0.24
5047 H 141.11020648364183 159.7346453001248 51.270992380506016 H 0.0 **** 0.06
5048 H 142.88325020379884 159.82570927696545 51.40270284502839 H 0.0 **** 0.06
5049 H 142.129192767716 159.2884125353297 49.881274572179336 H 0.0 **** 0.06
5050 H 142.07672711557893 158.2411207586544 51.32022232593101 H 0.0 **** 0.06
5051 C 169.4661359929159 166.16043418756942 126.57715840991584 C 0.0 **** -0.24
5052 H 170.52099490592641 166.1769453454123 126.30206854700519 H 0.0 **** 0.06
5053 H 168.905353602749 165.59201278672157 125.8353797515049 H 0.0 **** 0.06
5054 H 169.08621825884316 167.18208834727346 126.61696665022437 H 0.0 **** 0.06
5055 H 169.3535964962131 165.69368653670895 127.55540216273566 H 0.0 **** 0.06
5056 C 75.96872644264852 133.82910062768474 111.07224368831298 C 0.0 **** -0.24
5057 H 75.57403704128478 134.58351375228864 110.39202279391982 H 0.0 **** 0.06
5058 H 76.56010125468725 133.10641661203692 110.50951193844598 H 0.0 **** 0.06
5059 H 75.14218228578187 133.3166769799496 111.56604340684486 H 0.0 **** 0.06
5060 H 76.59818003389762 134.30856029433778 111.82195427857799 H 0.0 **** 0.06
5061 C 113.06771271962167 32.67707262506889 149.7495495034487 C 0.0 **** -0.24
5062 H 113.28742091345869 31.93699959226538 148.98096408572894 H 0.0 **** 0.06
5063 H 112.50414321234386 32.207175170529666 150.55685130979535 H 0.0 **** 0.06
5064 H 112.47812129887645 33.4868891734084 149.3178673066029 H 0.0 **** 0.06
5065 H 114.00194209737619 33.07858442182933 150.144400303808 H 0.0 **** 0.06
5066 C 60.17122237220208 55.47842841708922 130.06329719681185 C 0.0 **** -0.24
5067 H 59.72126111306929 55.051848422690284 129.16712158698937 H 0.0 **** 0.06
5068 H 60.250398581215876 54.708580985969604 130.83209526553208 H 0.0 **** 0.06
5069 H 59.54927969387835 56.295061518133224 130.42878868265115 H 0.0 **** 0.06
5070 H 61.16564338075237 55.85645463739456 129.82510104250235 H 0.0 **** 0.06
5071 C 170.8469460867791 141.43783549349507 15.979135932070236 C 0.0 **** -0.24
5072 H 169.7619391194789 141.48228511788398 15.887438259155658 H 0.0 **** 0.06
5073 H 171.1630928887501 140.39651448103234 16.05243088817428 H 0.0 **** 0.06
5074 H 171.15899886872006 141.97702573130022 16.873587894492438 H 0.0 **** 0.06
5075 H 171.30521844313577 141.89523910294736 15.101420268482038 H 0.0 **** 0.06
5076 C 58.171872979393925 115.01689460703518 138.18699470018657 C 0.0 **** -0.24
5077 H 57.62751589237003 115.96106884720125 138.21824763052052 H 0.0 **** 0.06
5078 H 57.517875325943436 114.21039390325224 138.51948088360263 H 0.0 **** 0.06
5079 H 59.038545379290554 115.0760968661567 138.84502083582896 H 0.0 **** 0.06
5080 H 58.50125209117526 114.82109866044276 137.16710809673958 H 0.0 **** 0.06
5081 C 20.63419943050829 127.5119181911205 78.8355873683779 C 0.0 **** -0.24
5082 H 21.278227078566545 127.52674545460856 79.71516051332954 H 0.0 **** 0.06
5083 H 21.003694041834933 126.7691548228165 78.12795279065543 H 0.0 **** 0.06
5084 H 20.637555788605027 128.4956739963152 78.36598368539065 H 0.0 **** 0.06
5085 H 19.617736597491728 127.2555167508897 79.13512031734138 H 0.0 **** 0.06
5086 C 147.92632396437855 174.33640409365628 135.11328579945229 C 0.0 **** -0.24
5087 H 146.90797790133533 174.26770093752424 135.49568550184125 H 0.0 **** 0.06
5088 H 148.13422485978697 175.36460573743705 134.8164340325394 H 0.0 **** 0.06
5089 H 148.03420753571442 173.67994844688715 134.24994955114448 H 0.0 **** 0.06
5090 H 148.62812928219014 174.03321709831312 135.8904359218302 H 0.0 **** 0.06
5091 C 180.16524193314842 54.951668109841194 117.5681569063354 C 0.0 **** -0.24
5092 H 181.16075439123586 55.20720531266883 117.20351039685796 H 0.0 **** 0.06
5093 H 180.1829204395557 54.887948772105744 118.65693269672083 H 0.0 **** 0.06
5094 H 179.86213524464165 53.98974230648767 117.15334553275112 H 0.0 **** 0.06
5095 H 179.4572343918838 55.720378924729005 117.26015635123802 H 0.0 **** 0.06
5096 C 141.2106632141701 100.67940262052078 15.54460508871113 C 0.0 **** -0.24
5097 H 141.67801746217708 101.27059573772233 16.332996554023893 H 0.0 **** 0.06
5098 H 140.2281522188734 101.09108660606502 15.315688550534077 H 0.0 **** 0.06
5099 H 141.10404703301157 99.64748198862121 15.88011243536517 H 0.0 **** 0.06
5100 H 141.83443703577694 100.70762220772777 14.651444282449553 H 0.0 **** 0.06
5101 C 93.79977345582388 134.61857290889662 52.172531297423916 C 0.0 **** -0.24
5102 H 93.6362888690506 134.26220969709868 53.190123279459215 H 0.0 **** 0.06
5103 H 94.42745419729191 133.90801590657634 51.63544566410519 H 0.0 **** 0.06
5104 H 94.2922260385531 135.58987109287165 52.20333104659386 H 0.0 **** 0.06
5105 H 92.84065940406332 134.7137639101657 51.66400670728342 H 0.0 **** 0.06
5106 C 30.292568523311786 14.656539120839426 92.02380716416174 C 0.0 **** -0.24
5107 H 29.807320385145033 13.71053920943072 91.78337884355183 H 0.0 **** 0.06
5108 H 31.37225639780509 14.546577844424405 91.92344298055148 H 0.0 **** 0.06
5109 H 30.049014908536577 14.939885284443903 93.04795557183853 H 0.0 **** 0.06
5110 H 29.941085612631568 15.428930142349486 91.33918883646898 H 0.0 **** 0.06
5111 C 117.36817097652619 78.20002854536119 143.2052165227823 C 0.0 **** -0.24
5112 H 118.25587284155887 78.71850880854447 142.84273482410535 H 0.0 **** 0.06
5113 H 117.66621262591588 77.28363509425054 143.71613884506365 H 0.0 **** 0.06
5114 H 116.72314440415641 77.95225248990062 142.36197805092627 H 0.0 **** 0.06
5115 H 116.82918225306963 78.8444101782041 143.89887263400766 H 0.0 **** 0.06
5116 C 51.928293391619604 169.6378735422426 154.1174222064498 C 0.0 **** -0.24
5117 H 51.86583511905286 170.70871844417357 153.91980246551694 H 0.0 **** 0.06
5118 H 52.122045505168444 169.1087245272671 153.18428566439158 H 0.0 **** 0.06
5119 H 50.986619663608565 169.29223498976341 154.54317322388414 H 0.0 **** 0.06
5120 H 52.738050406948275 169.4452707460175 154.82004448203926 H 0.0 **** 0.06
5121 C 61.59563718667164 71.22633800572281 144.9830792291845 C 0.0 **** -0.24
5122 H 60.50716697327965 71.26863784173345 145.03556457516027 H 0.0 **** 0.06
5123 H 61.897072186332196 70.34121099922982 144.42177938246724 H 0.0 **** 0.06
5124 H 62.00594164857432 71.17549001607024 145.9912513747214 H 0.0 **** 0.06
5125 H 61.969403035998084 72.11931080035959 144.4828752493443 H 0.0 **** 0.06
5126 C 184.37922984804473 149.76839994124208 85.79718418667797 C 0.0 **** -0.24
5127 H 183.41997539380102 149.343760757022 85.50115915587143 H 0.0 **** 0.06
5128 H 185.0533363569022 149.7750184306155 84.94022503255594 H 0.0 **** 0.06
5129 H 184.8119603023332 149.16695064361727 86.59615755362195 H 0.0 **** 0.06
5130 H 184.23044674878702 150.7889385150293 86.15054941120307 H 0.0 **** 0.06
5131 C 52.66892458446503 3.79866694179708 73.09380684704502 C 0.0 **** -0.24
5132 H 51.59969461415025 3.676038242014897 72.9210502650683 H 0.0 **** 0.06
5133 H 53.22447595891413 3.2444809406346167 72.33721454474932 H 0.0 **** 0.06
5134 H 52.92201259058959 3.418137644560886 74.08317748974815 H 0.0 **** 0.06
5135 H 52.927369743032756 4.856775076201558 73.03288321877764 H 0.0 **** 0.06
5136 C 106.05820755925792 179.39647951927728 96.415473996181 C 0.0 **** -0.24
5137 H 107.00199685394286 178.87213494038195 96.26715379366915 H 0.0 **** 0.06
5138 H 106.23615180023755 180.31005877730283 96.98312631932289 H 0.0 **** 0.06
5139 H 105.36973290514369 178.75510203213756 96.96606362827647 H 0.0 **** 0.06
5140 H 105.62671358731113 179.64804265049742 95.4467969090676 H 0.0 **** 0.06
5141 C 92.19835599942412 54.15175260272429 91.01091964523893 C 0.0 **** -0.24
5142 H 93.2815776430024 54.22895689253852 91.0980041005797 H 0.0 **** 0.06
5143 H 91.91785953520382 54.14726397516557 89.9581324287346 H 0.0 **** 0.06
5144 H 91.73240529668091 55.00270507238065 91.5086999409457 H 0.0 **** 0.06
5145 H 91.86104103886665 53.22719305820965 91.4808203382495 H 0.0 **** 0.06
5146 C 52.917851525951846 94.88610683065833 44.60752837454538 C 0.0 **** -0.24
5147 H 52.30928544150254 94.77149777206039 45.50469918058786 H 0.0 **** 0.06
5148 H 53.97322028638581 94.83689180722796 44.87665480922226 H 0.0 **** 0.06
5149 H 52.70444272542011 95.84913930341058 44.14399466812699 H 0.0 **** 0.06
5150 H 52.684577890413266 94.08491889620807 43.905023776256826 H 0.0 **** 0.06
5151 C 168.50422620767216 156.55471509204426 46.26142970155735 C 0.0 **** -0.24
5152 H 169.3180583872557 155.83407472369328 46.177925097131606 H 0.0 **** 0.06
5153 H 168.14040271277258 156.57441289253333 47.28930705500591 H 0.0 **** 0.06
5154 H 167.69244878993595 156.2657796861962 45.59444536924525 H 0.0 **** 0.06
5155 H 168.8661065443032 157.5455965528128 45.98503154127536 H 0.0 **** 0.06
5156 C 92.2526120248326 132.4421267856473 49.78384203461212 C 0.0 **** -0.24
5157 H 91.50297888107856 131.98579574994255 50.429812222100736 H 0.0 **** 0.06
5158 H 93.22556654622069 132.4061289107173 50.27417459723303 H 0.0 **** 0.06
5159 H 91.98178392278122 133.4812062282641 49.59029236800747 H 0.0 **** 0.06
5160 H 92.29893423020907 131.89751320700634 48.84091432765531 H 0.0 **** 0.06
5161 C 125.77240959406761 25.874574439925055 165.1556106336516 C 0.0 **** -0.24
5162 H 125.38581495393406 26.773406116419835 165.63585803035082 H 0.0 **** 0.06
5163 H 125.08312689366947 25.55559466506884 164.37352902954734 H 0.0 **** 0.06
5164 H 125.87233700858401 25.08144784947018 165.89768012238937 H 0.0 **** 0.06
5165 H 126.74727301941225 26.08696179515485 164.71802721540604 H 0.0 **** 0.06
5166 C 2.87718854297394 103.25782268726506 77.77352834387932 C 0.0 **** -0.24
5167 H 2.3137044778299725 104.19084720388175 77.75616951093286 H 0.0 **** 0.06
5168 H 3.7411706455020948 103.36705097581107 78.42992723115708 H 0.0 **** 0.06
5169 H 3.2140199562695457 103.01765440778748 76.76486429149065 H 0.0 **** 0.06
5170 H 2.238462613113711 102.45551701722017 78.14318381416138 H 0.0 **** 0.06
5171 C 113.40218000992398 77.86532874859414 118.61027347137882 C 0.0 **** -0.24
5172 H 114.12216263823508 78.24036915367792 119.33813272301195 H 0.0 **** 0.06
5173 H 113.19253517139764 76.81585903102521 118.81662441580873 H 0.0 **** 0.06
5174 H 113.81481499150188 77.96297006673498 117.60672881439238 H 0.0 **** 0.06
5175 H 112.479683541755 78.44158592010722 118.68234500375009 H 0.0 **** 0.06
5176 C 117.83760901437898 171.64588192265992 127.7023987475789 C 0.0 **** -0.24
5177 H 118.61664528923927 172.3987806780935 127.58237245386702 H 0.0 **** 0.06
5178 H 117.15013309752027 171.95783404844076 128.48903850880004 H 0.0 **** 0.06
5179 H 118.29192882151216 170.6930379939586 127.97258443231657 H 0.0 **** 0.06
5180 H 117.29201859804004 171.53521414214845 126.76524929058543 H 0.0 **** 0.06
5181 C 31.980949351561023 158.97134235740094 45.87028716169189 C 0.0 **** -0.24
5182 H 31.502177427310755 157.99888871889073 45.7589331828227 H 0.0 **** 0.06
5183 H 31.269699828393115 159.75759287580212 45.617812224132024 H 0.0 **** 0.06
5184 H 32.8416560132934 159.03156828860807 45.20316852367148 H 0.0 **** 0.06
5185 H 32.311600277076906 159.09768403244715 46.901520949674435 H 0.0 **** 0.06
5186 C 182.82221800479778 127.21470493581135 131.51887492439266 C 0.0 **** -0.24
5187 H 181.76607649920777 127.3517068678036 131.7522372346976 H 0.0 **** 0.06
5188 H 183.37163870667217 128.11899076438533 131.77934254125933 H 0.0 **** 0.06
5189 H 182.936473699398 127.01367291268993 130.45373356171257 H 0.0 **** 0.06
5190 H 183.2139966829059 126.37320358525444 132.09117496224366 H 0.0 **** 0.06
5191 C 110.17151827009684 177.778356690576 107.9677960017226 C 0.0 **** -0.24
5192 H 110.13303413810866 176.98728549115157 108.71687523616521 H 0.0 **** 0.06
5193 H 109.24318974728078 177.78225807222793 107.39718292876921 H 0.0 **** 0.06
5194 H 111.01073525015966 177.6012603306429 107.29538906026545 H 0.0 **** 0.06
5195 H 110.29913079155585 178.74065109318346 108.46420904104173 H 0.0 **** 0.06
5196 C 115.56792175730097 180.12665443459326 72.141704934008 C 0.0 **** -0.24
5197 H 116.48554052933444 180.51305864860092 71.69788296409277 H 0.0 **** 0.06
5198 H 115.74224165578546 179.11868157756902 72.51767786797308 H 0.0 **** 0.06
5199 H 114.78136032019968 180.10310258644452 71.38695345262738 H 0.0 **** 0.06
5200 H 115.26138694525822 180.77390389417488 72.96394816504257 H 0.0 **** 0.06
5201 C 140.46086397118552 29.415599045605006 64.124030167397 C 0.0 **** -0.24
5202 H 140.87209758354635 29.330739021190766 63.118300060330455 H 0.0 **** 0.06
5203 H 141.0755330481773 30.09764151428749 64.71088563730325 H 0.0 **** 0.06
5204 H 140.4532759338884 28.433627036175608 64.59683641939966 H 0.0 **** 0.06
5205 H 139.4418638179938 29.80024421414845 64.06797502685805 H 0.0 **** 0.06
5206 C 125.54909608043488 97.86336628786933 10.08976933341944 C 0.0 **** -0.24
5207 H 125.5990114745955 98.71888379635351 10.762701416176043 H 0.0 **** 0.06
5208 H 126.47186849164166 97.80345792876898 9.511387568106414 H 0.0 **** 0.06
5209 H 124.70313843848692 97.98220513024881 9.412413907855552 H 0.0 **** 0.06
5210 H 125.42475169507634 96.94992509353011 10.670273415992 H 0.0 **** 0.06
5211 C 184.4772785403341 44.55991512593515 109.6774939091326 C 0.0 **** -0.24
5212 H 185.00916771562333 43.639391108083274 109.43760686502752 H 0.0 **** 0.06
5213 H 183.6682128778044 44.33953968754395 110.37464440186675 H 0.0 **** 0.06
5214 H 184.06497834301274 44.98868180325056 108.764738181353 H 0.0 **** 0.06
5215 H 185.16783514937714 45.26931403486125 110.13358613858516 H 0.0 **** 0.06
5216 C 115.71679071019327 124.28757561176702 184.45097751859495 C 0.0 **** -0.24
5217 H 115.67415685042744 124.40829928168672 185.53310666767067 H 0.0 **** 0.06
5218 H 116.61636556583113 123.73552230564896 184.18114876274575 H 0.0 **** 0.06
5219 H 115.73673865715512 125.2691715838857 183.97736291414463 H 0.0 **** 0.06
5220 H 114.83704898676922 123.7397111962771 184.1119871527999 H 0.0 **** 0.06
5221 C 104.52122230721689 21.700387573291906 47.02387551838454 C 0.0 **** -0.24
5222 H 104.14340201432366 20.735918481921168 46.685465196912745 H 0.0 **** 0.06
5223 H 103.77196167971478 22.469357271185174 46.83653232625471 H 0.0 **** 0.06
5224 H 105.4353283020862 21.943637114559507 46.480598150245726 H 0.0 **** 0.06
5225 H 104.73547922645433 21.65284527999671 48.09176037971609 H 0.0 **** 0.06
5226 C 80.55748551655059 46.85510510883631 35.01285891301913 C 0.0 **** -0.24
5227 H 81.57112885071372 46.53460451833752 34.77270704441571 H 0.0 **** 0.06
5228 H 80.31090959372031 46.546025832566556 36.02983961082512 H 0.0 **** 0.06
5229 H 79.85636832645503 46.39793826261899 34.31427710994237 H 0.0 **** 0.06
5230 H 80.49119533477146 47.939843119043786 34.93657396173863 H 0.0 **** 0.06
5231 C 86.89189515466087 94.24830598936188 51.70116423493654 C 0.0 **** -0.24
5232 H 85.82763794649917 94.2378015594964 51.937472565817004 H 0.0 **** 0.06
5233 H 87.15610312809305 95.2095663139749 51.259165224508436 H 0.0 **** 0.06
5234 H 87.11439597523277 93.44997575114468 50.99260400572399 H 0.0 **** 0.06
5235 H 87.4686441892599 94.09686324483198 52.61357259114796 H 0.0 **** 0.06
5236 C 99.8556468915857 50.54335426942592 74.89326822712125 C 0.0 **** -0.24
5237 H 99.1862811116684 50.0107513925621 75.5706093899795 H 0.0 **** 0.06
5238 H 99.56318192339887 51.59264510819753 74.84464352888764 H 0.0 **** 0.06
5239 H 99.79226236736861 50.101915615514315 73.8992880210805 H 0.0 **** 0.06
5240 H 100.8791450834969 50.46674643838014 75.2605828884344 H 0.0 **** 0.06
5241 C 121.36687375139714 164.63322376768997 95.42535307194952 C 0.0 **** -0.24
5242 H 120.69854171783199 163.77610947677542 95.34652582910174 H 0.0 **** 0.06
5243 H 120.79110370257378 165.51838278788622 95.6978209628917 H 0.0 **** 0.06
5244 H 121.85793876306347 164.799657760099 94.46604432663942 H 0.0 **** 0.06
5245 H 122.11884556576469 164.43883448092015 96.1888172230261 H 0.0 **** 0.06
5246 C 88.84049579326152 21.17547684323577 153.0603430738293 C 0.0 **** -0.24
5247 H 89.27959319037721 21.122458049397324 152.06352921203128 H 0.0 **** 0.06
5248 H 87.75566496790277 21.23831273154201 152.9763604046855 H 0.0 **** 0.06
5249 H 89.21730104980831 22.057807689729515 153.57598383687213 H 0.0 **** 0.06
5250 H 89.11042066453622 20.28153626317954 153.62330949080553 H 0.0 **** 0.06
5251 C 94.30621698830458 61.97508413623788 146.87222424898223 C 0.0 **** -0.24
5252 H 94.81382263813003 62.53644167321946 147.65683217043775 H 0.0 **** 0.06
5253 H 94.96964134721048 61.196916177631024 146.49541912628715 H 0.0 **** 0.06
5254 H 94.03801102849468 62.65028334421227 146.0599318480218 H 0.0 **** 0.06
5255 H 93.40408847457059 61.51882809635015 147.27894272320273 H 0.0 **** 0.06
5256 C 111.16724839351912 153.28690049581024 87.67406581077002 C 0.0 **** -0.24
5257 H 111.65213056142193 153.87182431892927 88.45571008433386 H 0.0 **** 0.06
5258 H 111.37829153006868 152.22890160353796 87.82889957989177 H 0.0 **** 0.06
5259 H 111.54866123635065 153.59527104022877 86.70047543366597 H 0.0 **** 0.06
5260 H 110.08996424454972 153.45246206910298 87.71169056753963 H 0.0 **** 0.06
5261 C 14.823305529820402 172.77907347629105 52.62487367733519 C 0.0 **** -0.24
5262 H 15.814049051538746 173.14128084479137 52.350386045910625 H 0.0 **** 0.06
5263 H 14.70090594835085 172.84041326482105 53.706601533698745 H 0.0 **** 0.06
5264 H 14.713358657792469 171.74294565868843 52.305101587819536 H 0.0 **** 0.06
5265 H 14.064908461599657 173.39165413686322 52.1374055419119 H 0.0 **** 0.06
5266 C 157.97108968133978 95.44765398081722 159.52386725292035 C 0.0 **** -0.24
5267 H 158.1187158258407 95.97215329844471 158.57985117814445 H 0.0 **** 0.06
5268 H 157.86587731655035 96.17416984507986 160.32922084318352 H 0.0 **** 0.06
5269 H 158.83119942659926 94.80768846183486 159.7208310180342 H 0.0 **** 0.06
5270 H 157.07000007841788 94.83723607037678 159.4628191553382 H 0.0 **** 0.06
5271 C 174.75750830441322 92.56115958209601 180.19893881426802 C 0.0 **** -0.24
5272 H 175.2617211314685 93.32581312957099 180.79043924351407 H 0.0 **** 0.06
5273 H 173.8677827034652 92.22014820123432 180.7293405338636 H 0.0 **** 0.06
5274 H 175.43214724387917 91.72033090859019 180.04074657997262 H 0.0 **** 0.06
5275 H 174.46747690793188 92.98132162912258 179.23580070831173 H 0.0 **** 0.06
5276 C 151.64385187712867 99.72097151584671 182.28573812740933 C 0.0 **** -0.24
5277 H 151.97524985814007 99.24812127527758 183.2096723056929 H 0.0 **** 0.06
5278 H 151.39307290993744 100.76426311906886 182.48095067037252 H 0.0 **** 0.06
5279 H 150.763848296142 99.20113490923927 181.90683317144146 H 0.0 **** 0.06
5280 H 152.44187169849124 99.67166814508164 181.54616266844334 H 0.0 **** 0.06
5281 C 13.382773299396462 132.29402311241267 130.78710089490733 C 0.0 **** -0.24
5282 H 14.316281559207681 132.1896024535062 130.23466175441183 H 0.0 **** 0.06
5283 H 13.599617294921188 132.5840593726333 131.81604261148607 H 0.0 **** 0.06
5284 H 12.848367791278378 131.3437989504044 130.78228749329742 H 0.0 **** 0.06
5285 H 12.766271339100967 133.05978490979345 130.31601324600553 H 0.0 **** 0.06
5286 C 92.02377935725086 125.38537498897371 3.7433521469368998 C 0.0 **** -0.24
5287 H 92.08481209212975 126.22912015283761 3.0562193656998033 H 0.0 **** 0.06
5288 H 91.03759098792379 124.92739438040705 3.66956449818025 H 0.0 **** 0.06
5289 H 92.18664698333502 125.73629329235108 4.762572365180176 H 0.0 **** 0.06
5290 H 92.78653398173792 124.65164719856561 3.485276107133217 H 0.0 **** 0.06
5291 C 142.47025878003745 167.61414630055566 109.0091330577845 C 0.0 **** -0.24
5292 H 142.32099191455103 168.40401216307657 109.74395932077586 H 0.0 **** 0.06
5293 H 143.43451021249382 167.13528862128692 109.18095236322638 H 0.0 **** 0.06
5294 H 142.45032618507787 168.04218155334897 108.00670905257216 H 0.0 **** 0.06
5295 H 141.6745555812999 166.8746130844866 109.10375561018007 H 0.0 **** 0.06
5296 C 28.059259390083895 11.884124079115956 141.31994410970555 C 0.0 **** -0.24
5297 H 28.779172380149447 12.359922412978648 141.9858386920282 H 0.0 **** 0.06
5298 H 27.52363881562502 11.104755521051054 141.86232831265812 H 0.0 **** 0.06
5299 H 28.585328922302295 11.44192050235469 140.47400191163246 H 0.0 **** 0.06
5300 H 27.35072908712172 12.62867954851027 140.95800860710614 H 0.0 **** 0.06
5301 C 173.79110742768782 37.603788632913734 76.72181129872416 C 0.0 **** -0.24
5302 H 174.5752991508173 37.056617159091616 77.24587437213296 H 0.0 **** 0.06
5303 H 172.82723187747618 37.38836268724924 77.1839627590146 H 0.0 **** 0.06
5304 H 173.76990074793517 37.29498088251671 75.67591911842914 H 0.0 **** 0.06
5305 H 173.9928868854464 38.67326779946137 76.78026402667143 H 0.0 **** 0.06
5306 C 35.919011935338176 52.9398166450099 169.73070837949547 C 0.0 **** -0.24
5307 H 36.79197079277529 52.95661541738946 169.07873370161565 H 0.0 **** 0.06
5308 H 35.345087815498886 53.85594393662407 169.59281260962422 H 0.0 **** 0.06
5309 H 36.24434293934473 52.8679545721653 170.76966458703464 H 0.0 **** 0.06
5310 H 35.29811810689836 52.079582392763584 169.48466529879983 H 0.0 **** 0.06
5311 C 128.80359933165641 104.64377706447458 55.44158920893378 C 0.0 **** -0.24
5312 H 128.70286379677304 103.56869154475787 55.59252249297509 H 0.0 **** 0.06
5313 H 129.11818363171233 105.11278499655866 56.374303881519495 H 0.0 **** 0.06
5314 H 127.84476632069033 105.05866026400771 55.13043561973052 H 0.0 **** 0.06
5315 H 129.54904227734062 104.83330136054134 54.66907336692498 H 0.0 **** 0.06
5316 C 146.4093694950417 183.03805174141837 124.4222106210874 C 0.0 **** -0.24
5317 H 146.60848074918655 183.96199859267858 123.87865169651616 H 0.0 **** 0.06
5318 H 147.27573777208244 182.37977605287878 124.34800467528697 H 0.0 **** 0.06
5319 H 145.538850216184 182.54332867206563 123.99106836924784 H 0.0 **** 0.06
5320 H 146.21613694336503 183.26706337878247 125.4701110021673 H 0.0 **** 0.06
5321 C 118.29610512894344 46.12400327463283 107.59785120822279 C 0.0 **** -0.24
5322 H 117.93551382139553 46.49352818290981 108.55860125464874 H 0.0 **** 0.06
5323 H 117.67200750558042 45.290988061078565 107.27169447374 H 0.0 **** 0.06
5324 H 119.32708379530978 45.786506696756476 107.70209324577256 H 0.0 **** 0.06
5325 H 118.2479040768989 46.92372799141816 106.85988416354057 H 0.0 **** 0.06
5326 C 54.199900451563224 139.78163953969056 64.37735500972893 C 0.0 **** -0.24
5327 H 53.77666002860511 139.1893099251078 65.18909360999585 H 0.0 **** 0.06
5328 H 54.3253460032559 140.81253658802194 64.70747322603829 H 0.0 **** 0.06
5329 H 53.52789579920773 139.75401410702165 63.51953862588917 H 0.0 **** 0.06
5330 H 55.16795356973341 139.36931059918277 64.0934776432356 H 0.0 **** 0.06
5331 C 80.28396147054447 48.04611513474168 142.91692538666044 C 0.0 **** -0.24
5332 H 81.16687962968167 47.41546546831968 142.81172134017532 H 0.0 **** 0.06
5333 H 80.19445508107088 48.69375498321 142.04353793006658 H 0.0 **** 0.06
5334 H 80.37886730183767 48.65715835570846 143.81466334050123 H 0.0 **** 0.06
5335 H 79.3959769163648 47.418937289481136 142.9957400086435 H 0.0 **** 0.06
5336 C 171.9054748531886 90.98374186383546 127.97019644249993 C 0.0 **** -0.24
5337 H 172.6192582577914 90.42744740029991 127.36162753585076 H 0.0 **** 0.06
5338 H 172.38508844451448 91.29482556860978 128.89879114380278 H 0.0 **** 0.06
5339 H 171.0496907831957 90.34856761054493 128.19786867507975 H 0.0 **** 0.06
5340 H 171.56950703725008 91.86402456351823 127.42196623163191 H 0.0 **** 0.06
5341 C 168.04526094240296 11.343406794541437 143.70496708382896 C 0.0 **** -0.24
5342 H 168.38933531533303 11.961356914274347 142.8750719939405 H 0.0 **** 0.06
5343 H 168.527922822581 10.366909329500459 143.6546024459126 H 0.0 **** 0.06
5344 H 166.96471697423067 11.218933927936803 143.6416063990869 H 0.0 **** 0.06
5345 H 168.30101035768106 11.827326979472502 144.647939443584 H 0.0 **** 0.06
5346 C 21.119507351797473 138.33015700244653 108.31170006520055 C 0.0 **** -0.24
5347 H 20.968051664525476 138.05708558372606 109.35613318625532 H 0.0 **** 0.06
5348 H 21.200101005099064 139.4138113351857 108.22728259596254 H 0.0 **** 0.06
5349 H 20.274874256558675 137.9809826641528 107.71879488851782 H 0.0 **** 0.06
5350 H 22.036292311861175 137.86722180835142 107.9455925338806 H 0.0 **** 0.06
5351 C 86.15123772027277 155.85514283198825 18.61005059183718 C 0.0 **** -0.24
5352 H 87.05654216491115 156.22663106566034 18.131470732969923 H 0.0 **** 0.06
5353 H 85.27746214715074 156.28369857881978 18.116440776866554 H 0.0 **** 0.06
5354 H 86.1517474799503 156.14102272277725 19.661721064190864 H 0.0 **** 0.06
5355 H 86.11775338882205 154.76795961851008 18.529045274932436 H 0.0 **** 0.06
5356 C 135.90027367871 112.45592628426287 92.74898424953273 C 0.0 **** -0.24
5357 H 136.29726318186778 111.86802514899297 93.57646110655406 H 0.0 **** 0.06
5358 H 136.61446136254915 112.45389968606803 91.92626608424712 H 0.0 **** 0.06
5359 H 135.72965345320966 113.4801320588969 93.08040185502682 H 0.0 **** 0.06
5360 H 134.95808268668128 112.02031119415595 92.41404988331891 H 0.0 **** 0.06
5361 C 92.371472604951 95.7934595633238 6.1224373641314145 C 0.0 **** -0.24
5362 H 93.17939616892336 95.1221360773702 6.4163313873937255 H 0.0 **** 0.06
5363 H 91.78830483326628 96.06629915383071 7.002226703886102 H 0.0 **** 0.06
5364 H 91.72838716186077 95.29230882586039 5.399836240527826 H 0.0 **** 0.06
5365 H 92.79342065333462 96.69245502239009 5.672061525279069 H 0.0 **** 0.06
5366 C 167.35524940923497 33.7501889039101 33.827014833697206 C 0.0 **** -0.24
5367 H 167.94742289334533 32.86731628514789 34.069107549002965 H 0.0 **** 0.06
5368 H 166.29530538560343 33.499821670794915 33.874986570963145 H 0.0 **** 0.06
5369 H 167.604064057173 34.08924017498242 32.82177961172346 H 0.0 **** 0.06
5370 H 167.57614467115465 34.542204085992864 34.542903518920625 H 0.0 **** 0.06
5371 C 127.38705695955214 31.932111591990918 37.93982023676176 C 0.0 **** -0.24
5372 H 127.00704485534457 31.966333716851636 36.91848433461786 H 0.0 **** 0.06
5373 H 128.327923506388 32.48041063453357 37.99489912401236 H 0.0 **** 0.06
5374 H 127.5518440399321 30.89544331889749 38.231978499421814 H 0.0 **** 0.06
5375 H 126.66019976324354 32.38774976645192 38.612779262746244 H 0.0 **** 0.06
5376 C 106.67903390195215 171.0597499377894 26.6727921978503 C 0.0 **** -0.24
5377 H 107.03433513031513 170.0297337552833 26.719569277931868 H 0.0 **** 0.06
5378 H 105.99852665326995 171.17073505925836 25.829190084839013 H 0.0 **** 0.06
5379 H 107.52893296634613 171.7310943163546 26.546718055749267 H 0.0 **** 0.06
5380 H 106.15625704739813 171.30500715031533 27.596885594538776 H 0.0 **** 0.06
5381 C 71.09583376053311 107.07968532202466 57.23434724019319 C 0.0 **** -0.24
5382 H 71.29845580023434 107.96068076645088 57.84445111012252 H 0.0 **** 0.06
5383 H 71.91532511923567 106.36918302530876 57.339226908071055 H 0.0 **** 0.06
5384 H 71.00179124492104 107.37601554247686 56.18936409087712 H 0.0 **** 0.06
5385 H 70.16644030736316 106.61548962115654 57.5649354046912 H 0.0 **** 0.06
5386 C 29.85013916926019 128.20682524655155 81.12266917067475 C 0.0 **** -0.24
5387 H 30.39076758368077 127.28353488546152 81.32759636794856 H 0.0 **** 0.06
5388 H 30.434362682829885 128.82678933256142 80.44164801454797 H 0.0 **** 0.06
5389 H 29.68541910207108 128.746667520919 82.05434988001484 H 0.0 **** 0.06
5390 H 28.88970455196568 127.97067709382362 80.66489766597066 H 0.0 **** 0.06
5391 C 165.0524655062551 97.30250490866867 158.83501572915785 C 0.0 **** -0.24
5392 H 164.75220455564872 97.2141529751252 157.79067686027165 H 0.0 **** 0.06
5393 H 164.95145079963567 96.33324649849531 159.32445781377209 H 0.0 **** 0.06
5394 H 164.4141134411174 98.03114492475878 159.3351294577456 H 0.0 **** 0.06
5395 H 166.08943458226273 97.63140732898718 158.88808786833243 H 0.0 **** 0.06
5396 C 170.55076227300424 52.86351678481083 160.45037935444742 C 0.0 **** -0.24
5397 H 170.54008892083982 53.94993647710908 160.53945068104943 H 0.0 **** 0.06
5398 H 170.61749083385902 52.586520570868174 159.39834144808574 H 0.0 **** 0.06
5399 H 169.63303976604868 52.45598630504668 160.875905737659 H 0.0 **** 0.06
5400 H 171.40981068681532 52.463658521745856 160.98785914163156 H 0.0 **** 0.06
5401 C 42.03036237023798 158.3015907552708 1.4031009642591243 C 0.0 **** -0.24
5402 H 41.35982365579679 157.6108346411953 1.9138574376058841 H 0.0 **** 0.06
5403 H 42.91795821190334 157.76427356080288 1.0676680483543635 H 0.0 **** 0.06
5404 H 42.32329222190748 159.09626732038788 2.088199925662167 H 0.0 **** 0.06
5405 H 41.51941730762127 158.73280670390648 0.542107167941424 H 0.0 **** 0.06
5406 C 116.93861628077217 156.30895311795257 154.41233384868093 C 0.0 **** -0.24
5407 H 117.6978263155821 157.0163975177152 154.74525410625589 H 0.0 **** 0.06
5408 H 116.30263231436633 156.78479095038583 153.6654187720747 H 0.0 **** 0.06
5409 H 116.33248929022663 156.0005602670385 155.26376515388597 H 0.0 **** 0.06
5410 H 117.42214727530295 155.4355935926847 153.97438489445375 H 0.0 **** 0.06
5411 C 81.72419999361796 24.66683017114528 94.82069909721862 C 0.0 **** -0.24
5412 H 82.37569649870096 24.662820600919474 93.94654601970738 H 0.0 **** 0.06
5413 H 81.58291852604498 25.691886322770472 95.1628581070877 H 0.0 **** 0.06
5414 H 82.18134693696652 24.07760901140344 95.6165436145062 H 0.0 **** 0.06
5415 H 80.75917268100318 24.23427698343977 94.55670783187581 H 0.0 **** 0.06
5416 C 113.02111227637441 47.765655424845306 77.43902802994565 C 0.0 **** -0.24
5417 H 112.88201873244675 46.98932245745577 78.19110878505886 H 0.0 **** 0.06
5418 H 112.39643254423156 47.5477950014637 76.5724656004825 H 0.0 **** 0.06
5419 H 114.06770091698904 47.79372997520986 77.1352642932169 H 0.0 **** 0.06
5420 H 112.73764256394797 48.73107656779656 77.85756511177077 H 0.0 **** 0.06
5421 C 60.76492438305442 120.5448328720189 121.71805692743051 C 0.0 **** -0.24
5422 H 59.72600666152243 120.34359605562531 121.45705487469438 H 0.0 **** 0.06
5423 H 61.001628226532446 121.58377511468717 121.48914501557492 H 0.0 **** 0.06
5424 H 61.41799051101779 119.88722418794293 121.14430627152204 H 0.0 **** 0.06
5425 H 60.91260153728332 120.36368199469621 122.78303542407683 H 0.0 **** 0.06
5426 C 54.448654482115444 145.8504429032704 157.4390997944367 C 0.0 **** -0.24
5427 H 54.00992343398315 144.87549675867834 157.65183072697846 H 0.0 **** 0.06
5428 H 54.245210683645354 146.12032851251598 156.40221755767595 H 0.0 **** 0.06
5429 H 55.52530738139927 145.80720861980754 157.59884226378716 H 0.0 **** 0.06
5430 H 54.01267654843406 146.59764063037903 158.10137627274327 H 0.0 **** 0.06
5431 C 173.75656506750548 57.75322149584349 84.57308027878827 C 0.0 **** -0.24
5432 H 173.59426487449159 58.73184287927876 85.02492339421326 H 0.0 **** 0.06
5433 H 172.92803137845888 57.09320076699987 84.8314984398109 H 0.0 **** 0.06
5434 H 174.6887757782975 57.32990145567864 84.94833715153504 H 0.0 **** 0.06
5435 H 173.81575848610575 57.858288361473896 83.49048690275191 H 0.0 **** 0.06
5436 C 74.18329801037648 32.77256555402697 59.36209448359858 C 0.0 **** -0.24
5437 H 73.12015117388846 32.53129836100905 59.385934209308374 H 0.0 **** 0.06
5438 H 74.46685432346983 33.064409765048424 58.35078437164458 H 0.0 **** 0.06
5439 H 74.75934875921219 31.897932258363966 59.662872601024134 H 0.0 **** 0.06
5440 H 74.38470978718483 33.59502322241744 60.047402448832656 H 0.0 **** 0.06
5441 C 20.213136736444056 5.861104324058019 161.23106802835176 C 0.0 **** -0.24
5442 H 20.546184711802027 5.461227821736088 162.18885933876697 H 0.0 **** 0.06
5443 H 19.423415718895 5.225870927738384 160.8283104811805 H 0.0 **** 0.06
5444 H 21.051685741312127 5.884271061875424 160.5351648533641 H 0.0 **** 0.06
5445 H 19.82980609790374 6.871311311373354 161.3728700536115 H 0.0 **** 0.06
5446 C 152.09426735450177 132.4460368911116 24.024452279512218 C 0.0 **** -0.24
5447 H 152.71454102538198 132.75114653152156 23.181422591808655 H 0.0 **** 0.06
5448 H 152.3975167259323 131.4525566169283 24.35631241764699 H 0.0 **** 0.06
5449 H 151.04888187538435 132.42366104279716 23.716912233345113 H 0.0 **** 0.06
5450 H 152.21820849000056 133.15650791620374 24.841016331581045 H 0.0 **** 0.06
5451 C 96.37107677280672 10.349669794444452 119.10190119010737 C 0.0 **** -0.24
5452 H 95.83299698312139 9.55570032499486 119.62086748279297 H 0.0 **** 0.06
5453 H 95.86427350429086 10.579958007346875 118.16467541501335 H 0.0 **** 0.06
5454 H 97.38970522608084 10.021562996883233 118.89427081328724 H 0.0 **** 0.06
5455 H 96.39613102391583 11.240684052534675 119.72978115956526 H 0.0 **** 0.06
5456 C 34.91976750410083 71.47544826475985 80.2107728495764 C 0.0 **** -0.24
5457 H 35.628835060940446 70.87825328891938 79.63891650155473 H 0.0 **** 0.06
5458 H 34.34861804468133 72.11019629247733 79.53205152164364 H 0.0 **** 0.06
5459 H 35.46077466217423 72.09947324481766 80.92190042947598 H 0.0 **** 0.06
5460 H 34.239623412413934 70.81574169009195 80.75033344272249 H 0.0 **** 0.06
5461 C 10.66518856098719 129.41846606702285 150.41058193038782 C 0.0 **** -0.24
5462 H 11.380676413778588 129.60068238093288 151.21326477147846 H 0.0 **** 0.06
5463 H 9.682219168362735 129.782360292901 150.71196302265173 H 0.0 **** 0.06
5464 H 10.61148767794009 128.35014891290433 150.20738505133866 H 0.0 **** 0.06
5465 H 10.9867070726703 129.94488089959071 149.511759010939 H 0.0 **** 0.06
5466 C 133.97833922271724 70.4219247037991 26.571172346478164 C 0.0 **** -0.24
5467 H 133.14007701298016 70.11893727711035 25.944765593819753 H 0.0 **** 0.06
5468 H 134.648394923024 71.06286941271614 25.997344301173285 H 0.0 **** 0.06
5469 H 134.51961888940792 69.53695410570025 26.90627641208006 H 0.0 **** 0.06
5470 H 133.60474755374452 70.96943381090463 27.43752184300277 H 0.0 **** 0.06
5471 C 161.67089510394325 96.03918399216543 146.26348040674947 C 0.0 **** -0.24
5472 H 162.49033407867825 96.28728188455118 145.59002474527722 H 0.0 **** 0.06
5473 H 161.49843618263037 94.96268257353752 146.24355551208563 H 0.0 **** 0.06
5474 H 160.76737539413355 96.55732777181818 145.94178718971062 H 0.0 **** 0.06
5475 H 161.9262482981291 96.34873928176673 147.27679458583222 H 0.0 **** 0.06
5476 C 83.62883725546462 21.178119735535617 36.852405360316155 C 0.0 **** -0.24
5477 H 82.68508166805321 21.61131206675003 37.18335724901182 H 0.0 **** 0.06
5478 H 83.46664587979066 20.611928440340883 35.93486693917414 H 0.0 **** 0.06
5479 H 84.01364576644218 20.513205694289155 37.62648489280727 H 0.0 **** 0.06
5480 H 84.34931169194958 21.97437970833174 36.666593644104026 H 0.0 **** 0.06
5481 C 182.72855519153487 16.087869998866495 43.18960371646391 C 0.0 **** -0.24
5482 H 182.9692641373759 15.024921691727258 43.17267851111764 H 0.0 **** 0.06
5483 H 183.3962829120169 16.621945844747813 42.51391293339225 H 0.0 **** 0.06
5484 H 182.85090572977046 16.472875552410812 44.202393652000254 H 0.0 **** 0.06
5485 H 181.6960760345312 16.23176963104234 42.868363783936005 H 0.0 **** 0.06
5486 C 35.331433998687984 63.82830430360269 154.29869291990178 C 0.0 **** -0.24
5487 H 34.51010383000619 64.53981454874486 154.21041890814115 H 0.0 **** 0.06
5488 H 35.60538373834271 63.7186010459497 155.34783070422844 H 0.0 **** 0.06
5489 H 36.18871709105899 64.19350705491979 153.73356372872894 H 0.0 **** 0.06
5490 H 35.019089333853515 62.86259908280684 153.90113210376313 H 0.0 **** 0.06
5491 C 7.584066346282981 180.9365153499879 157.42840645969935 C 0.0 **** -0.24
5492 H 8.664245883302783 181.00688051630505 157.55785638878535 H 0.0 **** 0.06
5493 H 7.211437318213257 181.86196649166683 156.9877726107442 H 0.0 **** 0.06
5494 H 7.112117426493938 180.78011319424087 158.39747658168886 H 0.0 **** 0.06
5495 H 7.350473593360562 180.10019163194417 156.7698767209447 H 0.0 **** 0.06
5496 C 175.66624918580283 37.21578742228405 105.92189767734665 C 0.0 **** -0.24
5497 H 175.1489372081707 36.394388505538274 105.42475430352455 H 0.0 **** 0.06
5498 H 176.37523921002958 37.67019405405273 105.22981088898719 H 0.0 **** 0.06
5499 H 176.2008892003672 36.83430516356566 106.7921038123025 H 0.0 **** 0.06
5500 H 174.93922795971548 37.96216593346267 106.24058654737532 H 0.0 **** 0.06
5501 C 142.0448881658886 52.016111717934166 49.160300543511966 C 0.0 **** -0.24
5502 H 142.40740641370877 51.4359306804277 48.311436090696844 H 0.0 **** 0.06
5503 H 142.79195723005256 52.760851813682734 49.43633385163501 H 0.0 **** 0.06
5504 H 141.8662818553081 51.34990223262753 50.00466011441404 H 0.0 **** 0.06
5505 H 141.1155526449096 52.51545223620465 48.88779388523842 H 0.0 **** 0.06
5506 C 97.51936503058683 168.09433168568182 20.748774871704057 C 0.0 **** -0.24
5507 H 98.14267620542851 168.16743103259125 19.856942457074837 H 0.0 **** 0.06
5508 H 96.51111476378223 167.79617203550816 20.464446643353682 H 0.0 **** 0.06
5509 H 97.48597619826678 169.06295698916526 21.24730126520916 H 0.0 **** 0.06
5510 H 97.94141755227555 167.35110378652965 21.426290449164753 H 0.0 **** 0.06
5511 C 81.2059819318828 159.4623886267862 60.381068199479884 C 0.0 **** -0.24
5512 H 80.75418584139265 160.0235016243161 61.19991366340105 H 0.0 **** 0.06
5513 H 80.7862702298854 158.4572123805843 60.354010041369094 H 0.0 **** 0.06
5514 H 82.28386822957268 159.4032703748552 60.53394573109894 H 0.0 **** 0.06
5515 H 81.00005513861426 159.96841303419535 59.43724838255531 H 0.0 **** 0.06
5516 C 0.23069940057118288 13.954460025624606 66.31010818130761 C 0.0 **** -0.24
5517 H 1.21396102164465 14.262829255265189 65.95460097974264 H 0.0 **** 0.06
5518 H 0.16854686548253994 14.112968496351627 67.38719662482498 H 0.0 **** 0.06
5519 H 0.0794760282876723 12.898225177463722 66.08889836252347 H 0.0 **** 0.06
5520 H -0.536757286950774 14.544812655092613 65.81118902205826 H 0.0 **** 0.06
5521 C 6.2172347021264045 79.28500225994259 14.653144347087334 C 0.0 **** -0.24
5522 H 7.24960696205693 78.94681773661429 14.749918018774935 H 0.0 **** 0.06
5523 H 6.153729942222327 80.03093371131138 13.860669244966857 H 0.0 **** 0.06
5524 H 5.890398370883162 79.72535637077854 15.595187145880487 H 0.0 **** 0.06
5525 H 5.579302452287578 78.43675806299122 14.406380143760714 H 0.0 **** 0.06
5526 C 141.88272975986786 66.35760071921668 131.67783862934397 C 0.0 **** -0.24
5527 H 142.63808726711164 66.44650267539345 132.45810129108236 H 0.0 **** 0.06
5528 H 142.3578334682952 66.05380501243859 130.74509643770728 H 0.0 **** 0.06
5529 H 141.38994302022382 67.32008123889915 131.5384727269781 H 0.0 **** 0.06
5530 H 141.14407617381056 65.611033338154 131.969731401304 H 0.0 **** 0.06
5531 C 88.10685675618826 39.542876671546665 22.75152551386958 C 0.0 **** -0.24
5532 H 88.15740356794642 39.5485587068236 21.663315945346426 H 0.0 **** 0.06
5533 H 88.99643235619142 39.05968536015783 23.154703828812387 H 0.0 **** 0.06
5534 H 87.22001786413053 38.99579131713969 23.07123906579534 H 0.0 **** 0.06
5535 H 88.05196058127682 40.5688359016613 23.118083118509958 H 0.0 **** 0.06
5536 C 44.192605422387885 18.73962364708052 64.99507240765581 C 0.0 **** -0.24
5537 H 44.20604465682885 19.70126191362226 65.50854062117506 H 0.0 **** 0.06
5538 H 43.21592319504592 18.272547968103538 65.1265468578394 H 0.0 **** 0.06
5539 H 44.9642557413315 18.093750082754383 65.41225995699682 H 0.0 **** 0.06
5540 H 44.381999772260144 18.893322759674135 63.93226068868532 H 0.0 **** 0.06
5541 C 74.56831527286641 122.56860848686698 184.66581044881303 C 0.0 **** -0.24
5542 H 74.4289168889897 122.65020505083284 185.7443022116603 H 0.0 **** 0.06
5543 H 73.91579162508953 123.28113087502614 184.16077469817702 H 0.0 **** 0.06
5544 H 74.32053666097994 121.557085668413 184.34415114323915 H 0.0 **** 0.06
5545 H 75.60622290663252 122.78505643390095 184.41663511702816 H 0.0 **** 0.06
5546 C 182.82832094444393 172.03610251013873 158.62971158382075 C 0.0 **** -0.24
5547 H 181.97051597150923 171.39028000891642 158.4397370831742 H 0.0 **** 0.06
5548 H 182.49729609145137 172.93385949418885 159.15201256359873 H 0.0 **** 0.06
5549 H 183.28917110585112 172.31510170161005 157.68234896388378 H 0.0 **** 0.06
5550 H 183.5541694697461 171.50401070661894 159.24440548110027 H 0.0 **** 0.06
5551 C 170.45058006605151 17.38390527646382 146.15141919212257 C 0.0 **** -0.24
5552 H 170.5597717511869 18.207842441687774 145.44650708635655 H 0.0 **** 0.06
5553 H 169.48019066027408 17.45327816559427 146.64344681119812 H 0.0 **** 0.06
5554 H 171.24299918807455 17.438835442261677 146.89841918959561 H 0.0 **** 0.06
5555 H 170.5195648807578 16.436987579365365 145.61684711028568 H 0.0 **** 0.06
5556 C 39.01679974004077 46.559866010278995 66.18403699358788 C 0.0 **** -0.24
5557 H 39.501512585302805 47.13091259663224 65.39188951498454 H 0.0 **** 0.06
5558 H 39.01889050400649 45.50108535980081 65.92095985907787 H 0.0 **** 0.06
5559 H 37.98880610273079 46.90280226883243 66.30233396765209 H 0.0 **** 0.06
5560 H 39.55742303381791 46.70336563030054 67.11896621456387 H 0.0 **** 0.06
5561 C 179.15750820021205 181.52717498153933 176.11189553632443 C 0.0 **** -0.24
5562 H 180.06711752386363 181.9630899621851 176.52520338099578 H 0.0 **** 0.06
5563 H 179.18406428765462 180.44406196976033 176.2365525565874 H 0.0 **** 0.06
5564 H 179.08858064371563 181.77004022641574 175.0513707433361 H 0.0 **** 0.06
5565 H 178.29047724056176 181.93289857198593 176.63460681700064 H 0.0 **** 0.06
5566 C 72.27450689704638 161.49384137888214 126.44655897363229 C 0.0 **** -0.24
5567 H 72.97335271282434 162.2761025389451 126.74393648202214 H 0.0 **** 0.06
5568 H 71.96635060718377 161.65648749441198 125.41403377247933 H 0.0 **** 0.06
5569 H 71.39973508787143 161.524253407976 127.09655340973124 H 0.0 **** 0.06
5570 H 72.75898989372041 160.5212679622036 126.53285229618977 H 0.0 **** 0.06
5571 C 36.733981287050995 19.791633174150235 57.039724507005104 C 0.0 **** -0.24
5572 H 37.81864600304476 19.704466753442205 56.98898205123976 H 0.0 **** 0.06
5573 H 36.346552241730365 20.080645889435345 56.06296776240606 H 0.0 **** 0.06
5574 H 36.46411118758897 20.54867010332623 57.776583109525916 H 0.0 **** 0.06
5575 H 36.30616612532208 18.83260881399292 57.331698520879655 H 0.0 **** 0.06
5576 C 115.4916686676605 80.82009190947217 124.50325381529599 C 0.0 **** -0.24
5577 H 116.03333251184027 79.88091270654641 124.60829679751656 H 0.0 **** 0.06
5578 H 114.56776684564635 80.77350826216305 125.07904694701942 H 0.0 **** 0.06
5579 H 115.25745427679864 80.98815794837117 123.4523681064206 H 0.0 **** 0.06
5580 H 116.11001167793056 81.63880602998071 124.87267836618012 H 0.0 **** 0.06
5581 C 133.01954992258715 127.14508514562992 117.84842081357063 C 0.0 **** -0.24
5582 H 133.81377264050377 127.51261591028377 118.49769021661352 H 0.0 **** 0.06
5583 H 132.94828865750452 126.0610018064729 117.94040192969756 H 0.0 **** 0.06
5584 H 133.24398773366323 127.40881297931129 116.81455492320758 H 0.0 **** 0.06
5585 H 132.0721506586774 127.59790988645172 118.14103618476379 H 0.0 **** 0.06
5586 C 72.11573738775327 27.566641020027248 180.21745001510854 C 0.0 **** -0.24
5587 H 72.7677443326236 26.800850216461185 180.63933481888904 H 0.0 **** 0.06
5588 H 71.32752124660843 27.091060549567544 179.63420659884116 H 0.0 **** 0.06
5589 H 72.69919545962459 28.224452341123083 179.57377285103908 H 0.0 **** 0.06
5590 H 71.67010882772601 28.148595367440578 181.02443433748545 H 0.0 **** 0.06
5591 C 63.65001868401647 179.28003085949825 184.03048595252034 C 0.0 **** -0.24
5592 H 63.0545711472663 178.89281389489398 184.85734967702575 H 0.0 **** 0.06
5593 H 63.259233979647604 180.2505585667553 183.72562100769815 H 0.0 **** 0.06
5594 H 63.599552404481926 178.586701299134 183.19159226961094 H 0.0 **** 0.06
5595 H 64.68603705112294 179.38885948961303 184.35040097437013 H 0.0 **** 0.06
5596 C 1.5591489461244237 143.51189081195503 91.85929032870844 C 0.0 **** -0.24
5597 H 2.594997150007231 143.27953979346768 91.61227846055338 H 0.0 **** 0.06
5598 H 1.0186934338773312 143.77273160536072 90.94930280923235 H 0.0 **** 0.06
5599 H 1.5312580987813362 144.3513685730154 92.55338076358619 H 0.0 **** 0.06
5600 H 1.093196505994257 142.64162002073692 92.32274201506469 H 0.0 **** 0.06
5601 C 79.72040235609366 73.63700318497816 146.52131569278487 C 0.0 **** -0.24
5602 H 80.32169916033568 73.40066336250844 145.64400618090053 H 0.0 **** 0.06
5603 H 79.20884853854656 74.58743138406328 146.36622115090788 H 0.0 **** 0.06
5604 H 80.36713462328323 73.71139558655234 147.39552476778456 H 0.0 **** 0.06
5605 H 78.98406781666198 72.8492253176562 146.6807297552946 H 0.0 **** 0.06
5606 C 151.1004279779567 40.5032913947385 106.04727379461953 C 0.0 **** -0.24
5607 H 150.8987312454683 39.4694260382354 106.326931098613 H 0.0 **** 0.06
5608 H 152.00990259254075 40.54565658760099 105.44632826644816 H 0.0 **** 0.06
5609 H 151.23143705844535 41.10493820181766 106.94703605139459 H 0.0 **** 0.06
5610 H 150.26335724108827 40.89337842847084 105.46880596020709 H 0.0 **** 0.06
5611 C 98.16805304390277 132.7896877958837 180.48080659932475 C 0.0 **** -0.24
5612 H 97.2132005539612 133.2217720782782 180.78035335731334 H 0.0 **** 0.06
5613 H 98.81030233429817 133.57379976039215 180.07866276636116 H 0.0 **** 0.06
5614 H 97.99991250461437 132.03028631591974 179.7180717302523 H 0.0 **** 0.06
5615 H 98.64789305275667 132.3350878849099 181.34767674918822 H 0.0 **** 0.06
5616 C 27.883751323722322 34.0509638754466 18.563356769605626 C 0.0 **** -0.24
5617 H 27.37408352326389 34.975368352932605 18.28865238473785 H 0.0 **** 0.06
5618 H 28.774814626367004 34.28740073878714 19.1447810207395 H 0.0 **** 0.06
5619 H 28.170405096776676 33.511604548487185 17.660671614348118 H 0.0 **** 0.06
5620 H 27.213732525829215 33.431744115996935 19.159263681307372 H 0.0 **** 0.06
5621 C 110.46910964509026 120.17766766551016 12.55069096957974 C 0.0 **** -0.24
5622 H 109.42943187003637 120.1542250770061 12.226654100965483 H 0.0 **** 0.06
5623 H 111.1124267660427 120.36732840798835 11.6913940181281 H 0.0 **** 0.06
5624 H 110.73215586499528 119.21892983460928 12.99703143200066 H 0.0 **** 0.06
5625 H 110.60243113771476 120.96999143591158 13.286703717451658 H 0.0 **** 0.06
5626 C 92.63125238731486 117.45609229872407 37.34486567457088 C 0.0 **** -0.24
5627 H 92.55101664204726 117.07034372399782 36.329152331091535 H 0.0 **** 0.06
5628 H 91.74779764047996 118.05059906250496 37.579345527305804 H 0.0 **** 0.06
5629 H 93.52099563573638 118.08040284144478 37.42739848158277 H 0.0 **** 0.06
5630 H 92.7052210587626 116.62404045720179 38.04454896936329 H 0.0 **** 0.06
5631 C 138.14826249538936 100.98443663607772 0.08304827034004347 C 0.0 **** -0.24
5632 H 138.20136962517768 100.01865796993401 -0.41937143553727196 H 0.0 **** 0.06
5633 H 138.26762695904017 100.84169600350673 1.157428379963335 H 0.0 **** 0.06
5634 H 137.18098813464172 101.44421953600441 -0.1176264394183022 H 0.0 **** 0.06
5635 H 138.94221153341618 101.63130576725864 -0.2891231897406499 H 0.0 **** 0.06
5636 C 13.86442528905394 24.975679180044963 128.11053968488812 C 0.0 **** -0.24
5637 H 13.510749367615148 24.175319856324805 127.46088927967259 H 0.0 **** 0.06
5638 H 14.720250999874992 24.623458530380432 128.68814714668696 H 0.0 **** 0.06
5639 H 13.06529603106182 25.273326375015145 128.78897975169923 H 0.0 **** 0.06
5640 H 14.162964936527743 25.830625502349278 127.5033904095011 H 0.0 **** 0.06
5641 C 155.14756543710402 165.92268741571152 37.52732814071881 C 0.0 **** -0.24
5642 H 154.31932551262065 165.46784247046048 38.07055006854236 H 0.0 **** 0.06
5643 H 155.0005789174411 167.00175498795315 37.479260420293016 H 0.0 **** 0.06
5644 H 155.18593946254026 165.515418719079 36.51718854801227 H 0.0 **** 0.06
5645 H 156.08227064696945 165.7055124141321 38.04289725992902 H 0.0 **** 0.06
5646 C 69.6456370829944 132.18277899501237 19.800567526869173 C 0.0 **** -0.24
5647 H 69.91417729771584 132.79240548879415 18.93714579742103 H 0.0 **** 0.06
5648 H 69.99508561497278 132.6690949512132 20.710981093251256 H 0.0 **** 0.06
5649 H 70.1107083739767 131.20117669143383 19.71042890246831 H 0.0 **** 0.06
5650 H 68.56219202951273 132.0691213911956 19.8408184343512 H 0.0 **** 0.06
5651 C 155.94127125945818 125.4222869247778 117.42656894874507 C 0.0 **** -0.24
5652 H 154.88336043514076 125.68199494434519 117.38387463886248 H 0.0 **** 0.06
5653 H 156.48329320396186 125.98014673631754 116.66327215614838 H 0.0 **** 0.06
5654 H 156.060554745023 124.35405513213662 117.24966328339535 H 0.0 **** 0.06
5655 H 156.33724556785134 125.67354179982122 118.41096659165622 H 0.0 **** 0.06
5656 C 35.735580873626375 81.62196507251753 72.82881325131572 C 0.0 **** -0.24
5657 H 35.16444187654672 80.96754450422266 73.48590630632697 H 0.0 **** 0.06
5658 H 36.78534090095741 81.33075669269198 72.8483300378198 H 0.0 **** 0.06
5659 H 35.63844298586625 82.65310924203473 73.16977705675606 H 0.0 **** 0.06
5660 H 35.35290439238452 81.53856408849225 71.81156532088148 H 0.0 **** 0.06
5661 C 38.750157590411675 134.35085531473203 53.92713607336496 C 0.0 **** -0.24
5662 H 38.150589572312356 133.8290936073205 53.179969879103055 H 0.0 **** 0.06
5663 H 39.285030623380436 133.62131399270697 54.535887813373776 H 0.0 **** 0.06
5664 H 38.09730706804163 134.94706616686182 54.56440538130062 H 0.0 **** 0.06
5665 H 39.46530490503409 135.00313656179333 53.42769156886594 H 0.0 **** 0.06
5666 C 91.37349137473899 53.12192840565439 44.181185634040446 C 0.0 **** -0.24
5667 H 90.31163806138454 52.97092982525601 43.98590803199079 H 0.0 **** 0.06
5668 H 91.61291183961828 54.18086326195075 44.086580336559564 H 0.0 **** 0.06
5669 H 91.95954957566693 52.55078348039933 43.46078044503 H 0.0 **** 0.06
5670 H 91.60901257405368 52.784380614854456 45.190170074412606 H 0.0 **** 0.06
5671 C 157.44646659188442 144.65975882940936 78.20242432679494 C 0.0 **** -0.24
5672 H 156.41564108339298 144.78944214159355 77.87112929312713 H 0.0 **** 0.06
5673 H 157.929673074693 145.63523433688925 78.27224149743881 H 0.0 **** 0.06
5674 H 157.98332956183026 144.0386237657833 77.48576071255708 H 0.0 **** 0.06
5675 H 157.4552978211409 144.17887982070047 79.17992865943913 H 0.0 **** 0.06
5676 C 28.500960455420937 25.213419124694013 105.41897138298863 C 0.0 **** -0.24
5677 H 27.58106968950179 25.7238541870952 105.7047132179038 H 0.0 **** 0.06
5678 H 29.35714938986935 25.838325791021944 105.67411162682806 H 0.0 **** 0.06
5679 H 28.493553228445307 25.028024075975182 104.34483583550032 H 0.0 **** 0.06
5680 H 28.570475312567453 24.26526829653308 105.95174154370305 H 0.0 **** 0.06
5681 C 178.8989944377708 20.511388755277494 71.42494994469399 C 0.0 **** -0.24
5682 H 178.53841635831142 19.75971030705523 72.12825738903967 H 0.0 **** 0.06
5683 H 179.4809100443228 20.024798965814057 70.64193846536767 H 0.0 **** 0.06
5684 H 179.5268068143714 21.23020365219898 71.95230575234638 H 0.0 **** 0.06
5685 H 178.04960055912173 21.028931403909155 70.9798061550656 H 0.0 **** 0.06
5686 C 7.390594701493143 116.90127597524696 87.72777604358795 C 0.0 **** -0.24
5687 H 6.814501364360581 117.81824557928849 87.8507010963997 H 0.0 **** 0.06
5688 H 7.889834909773356 116.65706728245067 88.66544586396908 H 0.0 **** 0.06
5689 H 8.135540969072622 117.04162557100943 86.94425359739326 H 0.0 **** 0.06
5690 H 6.720258086942806 116.08652191243328 87.45018811851709 H 0.0 **** 0.06
5691 C 44.26459769370325 168.70700651561646 46.44087437295353 C 0.0 **** -0.24
5692 H 44.485364831760364 169.52404151374975 45.75349161019217 H 0.0 **** 0.06
5693 H 43.537919965458144 169.04246548129845 47.18076769174361 H 0.0 **** 0.06
5694 H 45.18094667212711 168.39890366035644 46.94406373753907 H 0.0 **** 0.06
5695 H 43.85468352521184 167.86485451991857 45.88433081997772 H 0.0 **** 0.06
5696 C 129.22166614181202 2.9862690169633197 128.7731733267454 C 0.0 **** -0.24
5697 H 129.13617959302707 3.8885058608984764 128.16761235607868 H 0.0 **** 0.06
5698 H 128.2636627831476 2.77539914596332 129.24714146425038 H 0.0 **** 0.06
5699 H 129.98242596733007 3.1339865159780516 129.53934261545606 H 0.0 **** 0.06
5700 H 129.50470096397152 2.148108934104073 128.1365837239644 H 0.0 **** 0.06
5701 C 146.27140236350812 80.00448447146913 150.80847670018738 C 0.0 **** -0.24
5702 H 146.63659847931842 81.00768263261914 150.58827993903526 H 0.0 **** 0.06
5703 H 146.91049016964234 79.26940949222892 150.31700852347458 H 0.0 **** 0.06
5704 H 145.2505803085166 79.90147353656414 150.4422548950517 H 0.0 **** 0.06
5705 H 146.2902738692385 79.84006145085404 151.88607974053699 H 0.0 **** 0.06
5706 C 94.14622156949633 153.09757709088294 4.466263174900547 C 0.0 **** -0.24
5707 H 93.18262100537902 153.16953600756807 3.9627890367048906 H 0.0 **** 0.06
5708 H 94.05820611747566 152.43044118469405 5.3250066635919495 H 0.0 **** 0.06
5709 H 94.45476076749054 154.08650570392425 4.804799904008576 H 0.0 **** 0.06
5710 H 94.88984824302275 152.7020361263381 3.7740369896313837 H 0.0 **** 0.06
5711 C 169.02537946469246 3.8699249576883403 66.32008051298416 C 0.0 **** -0.24
5712 H 168.3630589828352 4.157499628034742 67.13670328693073 H 0.0 **** 0.06
5713 H 168.75617356609865 2.873453403024655 65.96898650453406 H 0.0 **** 0.06
5714 H 170.057046651667 3.864051919839625 66.67453605763322 H 0.0 **** 0.06
5715 H 168.92564243220934 4.582753805700747 65.5023477401113 H 0.0 **** 0.06
5716 C 135.51073297625305 67.19123810932834 146.7263504552657 C 0.0 **** -0.24
5717 H 136.298731021903 67.1933006060326 145.97384785246606 H 0.0 **** 0.06
5718 H 135.9223602685733 66.86323822539354 147.68136743716076 H 0.0 **** 0.06
5719 H 134.7175090778386 66.50943910018394 146.41912850020196 H 0.0 **** 0.06
5720 H 135.10618038946524 68.19775240966837 146.83076079681615 H 0.0 **** 0.06
5721 C 75.74058934514369 80.44024609049512 176.13133338850162 C 0.0 **** -0.24
5722 H 74.9179787281106 80.91547137260949 175.59666239192734 H 0.0 **** 0.06
5723 H 76.45464832455463 81.2003695545792 176.44934985631576 H 0.0 **** 0.06
5724 H 76.23752100871513 79.7277616303874 175.47324436105077 H 0.0 **** 0.06
5725 H 75.35191615671494 79.91791645113317 177.0052843329851 H 0.0 **** 0.06
5726 C 7.822268328120465 108.41670838529855 72.98397042422924 C 0.0 **** -0.24
5727 H 8.846685018639782 108.21258075776773 73.29695244072136 H 0.0 **** 0.06
5728 H 7.627593711920774 107.91975773974276 72.03320587375308 H 0.0 **** 0.06
5729 H 7.687205001879256 109.49232252222883 72.86646505566716 H 0.0 **** 0.06
5730 H 7.13151668216549 108.0433492747449 73.73881839409601 H 0.0 **** 0.06
5731 C 157.19462732970828 34.617881357508224 118.89056819914664 C 0.0 **** -0.24
5732 H 157.46913136482544 33.91920971589528 118.10066578822558 H 0.0 **** 0.06
5733 H 156.11219699828297 34.613332012065214 119.01873310969783 H 0.0 **** 0.06
5734 H 157.5245455893042 35.62095833609858 118.61943374791925 H 0.0 **** 0.06
5735 H 157.67264190743234 34.31843230564414 119.82252670559778 H 0.0 **** 0.06
5736 C 146.48961229255633 171.46965394932036 114.86007839420456 C 0.0 **** -0.24
5737 H 145.94393299000836 170.5309825365133 114.7696991129365 H 0.0 **** 0.06
5738 H 147.04474077360942 171.65762605987535 113.94040549148822 H 0.0 **** 0.06
5739 H 147.1842558701573 171.4061900901684 115.69755854182499 H 0.0 **** 0.06
5740 H 145.78551953645047 172.28381711072416 115.03265043056884 H 0.0 **** 0.06
5741 C 17.79388464705869 13.587179366681141 5.532135004721042 C 0.0 **** -0.24
5742 H 17.565692643971317 14.26220114609879 4.706872993539541 H 0.0 **** 0.06
5743 H 17.51397887292353 14.058179846540042 6.474626743743528 H 0.0 **** 0.06
5744 H 18.8613002062809 13.368619311715008 5.537121634254142 H 0.0 **** 0.06
5745 H 17.233252879888 12.660622437666234 5.407188415349559 H 0.0 **** 0.06
5746 C 74.76357416133726 177.30141354149362 83.02081262945683 C 0.0 **** -0.24
5747 H 74.83635603753622 177.41269797900276 84.10309030086887 H 0.0 **** 0.06
5748 H 74.35358669139147 176.3186523192506 82.78398977470374 H 0.0 **** 0.06
5749 H 75.75577690445633 177.3970316962114 82.57886323339494 H 0.0 **** 0.06
5750 H 74.11039531897195 178.0753606954874 82.61931725634918 H 0.0 **** 0.06
5751 C 128.28504285539037 147.53441192416733 178.01273831658585 C 0.0 **** -0.24
5752 H 128.17568388456 147.66689777869735 176.93601063714965 H 0.0 **** 0.06
5753 H 127.44666274603456 146.9496138993316 178.39297437340574 H 0.0 **** 0.06
5754 H 128.29886670340863 148.5093848359619 178.49979383996669 H 0.0 **** 0.06
5755 H 129.21780354461424 147.01045920873636 178.2207609245767 H 0.0 **** 0.06
5756 C 155.98459449964827 15.99325821483373 81.74150464354022 C 0.0 **** -0.24
5757 H 156.2285337515874 15.889289712083979 80.684327481944 H 0.0 **** 0.06
5758 H 155.05168513611946 16.548019832141037 81.84583609594907 H 0.0 **** 0.06
5759 H 156.78536532467143 16.53084688792488 82.24807530654557 H 0.0 **** 0.06
5760 H 155.8710406396016 15.005096835734655 82.18684267537644 H 0.0 **** 0.06
5761 C 45.89508890329864 136.23612832993115 3.7335777751491435 C 0.0 **** -0.24
5762 H 45.58690693118905 135.21326208500636 3.951148204682113 H 0.0 **** 0.06
5763 H 45.06554991362691 136.91511328830217 3.9325297036251072 H 0.0 **** 0.06
5764 H 46.18447516009917 136.3120630880067 2.6858111737929846 H 0.0 **** 0.06
5765 H 46.743101001061746 136.50189222781074 4.365185572932376 H 0.0 **** 0.06
5766 C 67.25706014462594 19.707008096959058 107.39537778513947 C 0.0 **** -0.24
5767 H 68.27488755247316 20.085905599688644 107.48514081154617 H 0.0 **** 0.06
5768 H 66.77939949800673 19.714027908856544 108.37527492243488 H 0.0 **** 0.06
5769 H 67.28166090215774 18.68701018240685 107.01035902144987 H 0.0 **** 0.06
5770 H 66.69261717113902 20.339926143151217 106.71147339843351 H 0.0 **** 0.06
5771 C 79.48864044227071 114.91436306415632 82.82797754478582 C 0.0 **** -0.24
5772 H 79.23728677638755 115.86593154313799 83.29711733607931 H 0.0 **** 0.06
5773 H 79.46679195871717 115.02689121185195 81.74386203826703 H 0.0 **** 0.06
5774 H 78.76407437087089 114.15865568444586 83.12941692394752 H 0.0 **** 0.06
5775 H 80.48681533890054 114.60686775617556 83.14132543297144 H 0.0 **** 0.06
5776 C 125.65974867729734 40.57735612990791 148.7808784802376 C 0.0 **** -0.24
5777 H 126.11549294163011 41.56599601407447 148.84000310009893 H 0.0 **** 0.06
5778 H 126.30947191462725 39.848461866960406 149.2656260837217 H 0.0 **** 0.06
5779 H 125.52178179320684 40.303266156670304 147.7345481260602 H 0.0 **** 0.06
5780 H 124.69247362262892 40.592648703728514 149.28311295618892 H 0.0 **** 0.06
5781 C 150.69994619174457 107.02939269961662 45.27169695399651 C 0.0 **** -0.24
5782 H 151.50696552438689 107.75021597837578 45.40115717571007 H 0.0 **** 0.06
5783 H 150.95001386249652 106.10693645219884 45.79597169145461 H 0.0 **** 0.06
5784 H 150.56838899570417 106.81980765444989 44.210353387620856 H 0.0 **** 0.06
5785 H 149.77681820320004 107.440735408912 45.67884094766602 H 0.0 **** 0.06
5786 C 6.483351547167615 71.78163808204518 15.539361072476389 C 0.0 **** -0.24
5787 H 7.3530078642077115 71.61341697588477 16.173829266616572 H 0.0 **** 0.06
5788 H 6.808386560298658 72.15594118861597 14.568541938295908 H 0.0 **** 0.06
5789 H 5.826914548930375 72.51360348191947 16.00996439285189 H 0.0 **** 0.06
5790 H 5.9441571603761645 70.84344024229362 15.405414779623186 H 0.0 **** 0.06
5791 C 39.49004558096823 124.29739457187958 38.42116906976361 C 0.0 **** -0.24
5792 H 39.24853506193293 123.23607584680633 38.365982223249276 H 0.0 **** 0.06
5793 H 38.799084710589 124.85980867156479 37.794053616022694 H 0.0 **** 0.06
5794 H 40.51079897583645 124.4558739919392 38.07083039757474 H 0.0 **** 0.06
5795 H 39.40387020782583 124.63569555497611 39.45358642948389 H 0.0 **** 0.06
5796 C 8.716911750692589 129.3339194661138 163.32861987420478 C 0.0 **** -0.24
5797 H 7.653194116139076 129.11997259050645 163.2229652495144 H 0.0 **** 0.06
5798 H 9.020227436840855 129.1693830143318 164.36291080609647 H 0.0 **** 0.06
5799 H 8.906416627772217 130.371240544013 163.05368127706132 H 0.0 **** 0.06
5800 H 9.28617711089862 128.67410985626378 162.67337518110384 H 0.0 **** 0.06
5801 C 51.644675804417034 11.731357420591529 135.63534352988336 C 0.0 **** -0.24
5802 H 52.56023258424909 11.790229052665289 136.2232978305912 H 0.0 **** 0.06
5803 H 51.600720152742895 10.766899680983883 135.1280767704277 H 0.0 **** 0.06
5804 H 51.634679135921544 12.53209729890883 134.89649844853307 H 0.0 **** 0.06
5805 H 50.78287682326879 11.834175200404637 136.29570283673672 H 0.0 **** 0.06
5806 C 181.7776974735421 97.62223002359184 69.63842143530191 C 0.0 **** -0.24
5807 H 180.87716510878204 98.05819064330797 69.20408377859347 H 0.0 **** 0.06
5808 H 182.3986073684023 97.20748972619481 68.84426480440322 H 0.0 **** 0.06
5809 H 181.4973096345579 96.82972071903714 70.33284712986357 H 0.0 **** 0.06
5810 H 182.33326017469392 98.39306757864807 70.17148229922807 H 0.0 **** 0.06
5811 C 48.82840154008457 177.77975411361894 11.67651445003311 C 0.0 **** -0.24
5812 H 48.564913273471404 176.78502664657103 11.316399780832434 H 0.0 **** 0.06
5813 H 48.48564852472484 178.5279062998002 10.961763416833072 H 0.0 **** 0.06
5814 H 49.9107065882758 177.85024246485952 11.786266650671685 H 0.0 **** 0.06
5815 H 48.3527867254641 177.95305469834017 12.641814826765497 H 0.0 **** 0.06
5816 C 34.09686841223336 127.6849855430777 21.697458841013486 C 0.0 **** -0.24
5817 H 33.54359935042231 127.5367356471367 20.76962496685735 H 0.0 **** 0.06
5818 H 34.438109885395065 128.7193135969531 21.75432827118732 H 0.0 **** 0.06
5819 H 34.957589304473856 127.01668787212641 21.71746198976524 H 0.0 **** 0.06
5820 H 33.44813497690987 127.46845654572375 22.54631483069761 H 0.0 **** 0.06
5821 C 119.8598553687372 178.37530011970514 48.721997297614635 C 0.0 **** -0.24
5822 H 119.5932142078134 179.41670581218492 48.54203053414676 H 0.0 **** 0.06
5823 H 119.3434469867927 177.73857002670297 48.003365579952586 H 0.0 **** 0.06
5824 H 119.56511903199079 178.09548746756815 49.7332068332809 H 0.0 **** 0.06
5825 H 120.9372393084986 178.25229123812824 48.610019475546366 H 0.0 **** 0.06
5826 C 48.361967775439865 108.48524553720387 89.12969580971914 C 0.0 **** -0.24
5827 H 48.92505511733452 107.66950918483508 89.5822509911127 H 0.0 **** 0.06
5828 H 47.86536595456565 109.06169662333662 89.9120059845401 H 0.0 **** 0.06
5829 H 47.61462776628528 108.07688925130998 88.44915527069445 H 0.0 **** 0.06
5830 H 49.04161569708788 109.13297011875369 88.57661090283851 H 0.0 **** 0.06
5831 C 25.823491284340093 73.03946284553048 113.14857428018024 C 0.0 **** -0.24
5832 H 24.795690599038437 73.39047872622726 113.24281320548675 H 0.0 **** 0.06
5833 H 26.497460203812523 73.76277735645887 113.60991301712761 H 0.0 **** 0.06
5834 H 26.075067440504995 72.93035779603265 112.09375492003909 H 0.0 **** 0.06
5835 H 25.92598873315751 72.0772172247311 113.64806697023334 H 0.0 **** 0.06
5836 C 78.57804182831751 14.131322072276276 9.260597157703536 C 0.0 **** -0.24
5837 H 78.44068464855962 13.226218310733827 8.669090990612823 H 0.0 **** 0.06
5838 H 77.61093577147955 14.47187642162234 9.633972353604676 H 0.0 **** 0.06
5839 H 79.02110650446429 14.908854235689205 8.638056557682887 H 0.0 **** 0.06
5840 H 79.23786166185528 13.918959317295418 10.101619870128268 H 0.0 **** 0.06
5841 C 115.38121005535406 44.7959153294772 156.40652822322784 C 0.0 **** -0.24
5842 H 114.77412023125099 44.04034737665188 156.9043528477706 H 0.0 **** 0.06
5843 H 114.74671491075439 45.627754069256184 156.09901300327692 H 0.0 **** 0.06
5844 H 115.85692668232373 44.35906582403095 155.5281896913975 H 0.0 **** 0.06
5845 H 116.14802656526679 45.15754781256422 157.0919133421991 H 0.0 **** 0.06
5846 C 6.39488087954949 178.49389819077308 107.05997264696111 C 0.0 **** -0.24
5847 H 6.605710872719605 177.98268870985447 108.00041615729327 H 0.0 **** 0.06
5848 H 5.4197787258097065 178.97677302226285 107.12039647315191 H 0.0 **** 0.06
5849 H 6.392464956176106 177.76909076071695 106.24600046627131 H 0.0 **** 0.06
5850 H 7.163030950595477 179.24460365530038 106.87529691054635 H 0.0 **** 0.06
5851 C 185.12600690704113 82.6378536595146 16.29259413697696 C 0.0 **** -0.24
5852 H 185.897330579195 81.92114225667953 16.010924263953996 H 0.0 **** 0.06
5853 H 184.96735558100067 83.34160453091923 15.474288644303073 H 0.0 **** 0.06
5854 H 185.44282464364613 83.18134524821275 17.182480515648223 H 0.0 **** 0.06
5855 H 184.19676570972723 82.10765565834237 16.50133139210496 H 0.0 **** 0.06
5856 C 12.383517512341882 8.391514697629702 45.06177267646049 C 0.0 **** -0.24
5857 H 11.390315470963998 8.11448421859788 45.4170362605754 H 0.0 **** 0.06
5858 H 13.137048860210768 7.9765103340538985 45.730837126955294 H 0.0 **** 0.06
5859 H 12.472388618955677 9.477287807582456 45.04125386572977 H 0.0 **** 0.06
5860 H 12.532137478760717 7.995338067021805 44.05644557232509 H 0.0 **** 0.06
5861 C 0.8228193144393003 127.04907029964916 120.39325937796242 C 0.0 **** -0.24
5862 H 0.22794263973162288 126.14930245646597 120.23768970669697 H 0.0 **** 0.06
5863 H 1.713827870224975 126.80019200146039 120.96955592122778 H 0.0 **** 0.06
5864 H 0.2317318708279572 127.78581219424377 120.93816157324817 H 0.0 **** 0.06
5865 H 1.1168387571747758 127.4613257919069 119.42764850549553 H 0.0 **** 0.06
5866 C 21.986024601839574 82.82059006664548 119.76486557243437 C 0.0 **** -0.24
5867 H 22.65072973655009 83.67873410742868 119.66701238958542 H 0.0 **** 0.06
5868 H 21.362245326835023 82.9428042388198 120.65050742032805 H 0.0 **** 0.06
5869 H 22.578738505400224 81.910583644334 119.85914127568795 H 0.0 **** 0.06
5870 H 21.351423640777114 82.75091488111633 118.88065214559755 H 0.0 **** 0.06
5871 C 127.86751255158698 106.96044059067559 172.885932410844 C 0.0 **** -0.24
5872 H 127.5210745427285 107.85499124332064 173.4031714185025 H 0.0 **** 0.06
5873 H 128.45248260403378 106.34796031510949 173.57198219777348 H 0.0 **** 0.06
5874 H 128.4875609284142 107.24909231043667 172.03673303584708 H 0.0 **** 0.06
5875 H 127.00774521830674 106.39114742865739 172.5311017207308 H 0.0 **** 0.06
5876 C 2.6328884043632286 33.694391274092595 115.18656467871308 C 0.0 **** -0.24
5877 H 2.223945036126537 34.60883960669716 115.61662971950987 H 0.0 **** 0.06
5878 H 2.0452532813863513 33.40926562764895 114.31362556035337 H 0.0 **** 0.06
5879 H 2.5957985582793697 32.89558743212507 115.92735353648162 H 0.0 **** 0.06
5880 H 3.667280418475798 33.86489443390036 114.88799274622811 H 0.0 **** 0.06
5881 C 173.04508260606374 82.00305021559953 160.24945442189812 C 0.0 **** -0.24
5882 H 173.4546848084534 81.09908633241417 159.7985334746348 H 0.0 **** 0.06
5883 H 171.95953299836563 82.00330674698891 160.1409306992536 H 0.0 **** 0.06
5884 H 173.46047758971753 82.87827853837621 159.7498628332472 H 0.0 **** 0.06
5885 H 173.3049556008523 82.03157775215853 161.30775852550943 H 0.0 **** 0.06
5886 C 16.282755146483098 8.408890065123906 34.980943090741306 C 0.0 **** -0.24
5887 H 16.994354328709157 8.561147319820996 35.79275200145484 H 0.0 **** 0.06
5888 H 16.812055256475347 8.055947766649957 34.09542769868246 H 0.0 **** 0.06
5889 H 15.782939399115627 9.350647676865322 34.75467957602129 H 0.0 **** 0.06
5890 H 15.542435650160911 7.667907155420529 35.28155200460836 H 0.0 **** 0.06
5891 C 169.01050546866065 178.20315514534917 126.27177066061743 C 0.0 **** -0.24
5892 H 168.37211597182204 177.7749839532259 125.49892420413376 H 0.0 **** 0.06
5893 H 170.02172079313505 178.32335670176604 125.88216248072477 H 0.0 **** 0.06
5894 H 169.02977289081284 177.53957418864672 127.13564589241706 H 0.0 **** 0.06
5895 H 168.61756611038962 179.17583693141492 126.56893422614759 H 0.0 **** 0.06
5896 C 115.30472454875603 170.00495285245051 7.885629865075231 C 0.0 **** -0.24
5897 H 115.48369307902193 169.72415527926597 6.847412947551582 H 0.0 **** 0.06
5898 H 116.15286441956205 169.69559452336387 8.496808692335875 H 0.0 **** 0.06
5899 H 114.39996401567261 169.5125807015038 8.243065765318917 H 0.0 **** 0.06
5900 H 115.18150782142762 171.08537064630787 7.954342090393382 H 0.0 **** 0.06
5901 C 182.66373809673328 48.7238636563045 5.998404078738048 C 0.0 **** -0.24
5902 H 182.02856206128354 48.2602335157801 6.75347882392424 H 0.0 **** 0.06
5903 H 182.54533507440837 49.807111631090606 6.039072706654878 H 0.0 **** 0.06
5904 H 182.3759845372766 48.362965676625834 5.010942737124594 H 0.0 **** 0.06
5905 H 183.70480019580944 48.46377903816051 6.190375601544247 H 0.0 **** 0.06
5906 C 50.304782282126695 185.13059373823955 179.21241308392732 C 0.0 **** -0.24
5907 H 49.223344464554884 185.16514563652407 179.07941013876058 H 0.0 **** 0.06
5908 H 50.66841510332671 186.11966438433694 179.49102175545747 H 0.0 **** 0.06
5909 H 50.7762070812517 184.81830526281078 178.28047159729118 H 0.0 **** 0.06
5910 H 50.55056823404885 184.41769120936155 180.0005340484595 H 0.0 **** 0.06
5911 C 44.72406232083563 165.60268191615302 20.05573548319395 C 0.0 **** -0.24
5912 H 45.27886043647095 164.82197527962168 20.57489107668848 H 0.0 **** 0.06
5913 H 43.659875858964995 165.36537894227237 20.07356415174349 H 0.0 **** 0.06
5914 H 45.06577888972879 165.66574265587658 19.02345623342476 H 0.0 **** 0.06
5915 H 44.891663195553065 166.55846279624828 20.5531048037611 H 0.0 **** 0.06
5916 C 124.22079430091078 156.0449934200942 104.29777787929372 C 0.0 **** -0.24
5917 H 125.24407749351509 155.92821108594404 103.93863891238037 H 0.0 **** 0.06
5918 H 124.09561719732677 157.04146803750882 104.71993349251487 H 0.0 **** 0.06
5919 H 124.01835387718053 155.29685558281707 105.06418639556414 H 0.0 **** 0.06
5920 H 123.52740494235537 155.91093495250936 103.46675626768665 H 0.0 **** 0.06
5921 C 84.57506063657176 102.88158133602643 162.92569247799045 C 0.0 **** -0.24
5922 H 84.44219027535782 102.36791644088787 163.8777015110601 H 0.0 **** 0.06
5923 H 85.27745900895185 103.70639040054205 163.0524755109896 H 0.0 **** 0.06
5924 H 83.61552087021319 103.27129754092964 162.58496811119963 H 0.0 **** 0.06
5925 H 84.96578527662746 102.18192667355562 162.18660589287532 H 0.0 **** 0.06
5926 C 144.0450672186948 176.63182491449732 142.29979304411518 C 0.0 **** -0.24
5927 H 143.9050453764685 175.75045549198774 141.67384081649993 H 0.0 **** 0.06
5928 H 145.0968897801155 176.9191321080957 142.2923593699751 H 0.0 **** 0.06
5929 H 143.73659281728933 176.40425364100872 143.31969558787227 H 0.0 **** 0.06
5930 H 143.44037646872874 177.45176246766573 141.91215291231435 H 0.0 **** 0.06
5931 C 42.891637868646626 76.71847192279827 4.706826183944081 C 0.0 **** -0.24
5932 H 42.81719261693982 75.92757947179422 3.9611390015690375 H 0.0 **** 0.06
5933 H 42.10582399557592 77.45501376280366 4.536054218476494 H 0.0 **** 0.06
5934 H 43.865685478906244 77.20171664503044 4.627232417622665 H 0.0 **** 0.06
5935 H 42.778105892261976 76.2904183410002 5.7024018790118305 H 0.0 **** 0.06
5936 C 105.46752268756966 122.2472324191498 45.81118305634857 C 0.0 **** -0.24
5937 H 106.02959528739943 122.24084261516346 46.74483605161913 H 0.0 **** 0.06
5938 H 105.58270586874256 123.21670074454737 45.324965615618225 H 0.0 **** 0.06
5939 H 104.41275409278721 122.06971875424948 46.021826074923524 H 0.0 **** 0.06
5940 H 105.84447293248776 121.46364128534758 45.15399220983568 H 0.0 **** 0.06
5941 C 141.34999182193565 110.40305968152306 132.62592914100838 C 0.0 **** -0.24
5942 H 142.01774239642072 110.17805926475849 133.4564731205146 H 0.0 **** 0.06
5943 H 141.3473705185345 111.47721804298259 132.44249716210203 H 0.0 **** 0.06
5944 H 140.34096277544495 110.07310286765876 132.87199261677813 H 0.0 **** 0.06
5945 H 141.6944638294508 109.88263761206245 131.73127651937318 H 0.0 **** 0.06
5946 C 120.31187424885684 26.246920802936614 35.17081344993706 C 0.0 **** -0.24
5947 H 120.80870672230799 26.06241561921692 36.122769682698916 H 0.0 **** 0.06
5948 H 119.56077579092113 25.47602011213131 34.997693254204535 H 0.0 **** 0.06
5949 H 121.04884704700271 26.22453112838967 34.36643529038176 H 0.0 **** 0.06
5950 H 119.83055825225273 27.224917017075967 35.195342934526636 H 0.0 **** 0.06
5951 C 160.40596267554636 163.3304531877299 61.619495569406624 C 0.0 **** -0.24
5952 H 159.54007359484083 162.66784336473464 61.625126202405795 H 0.0 **** 0.06
5953 H 160.3273390339758 164.0379998128082 62.44466067388322 H 0.0 **** 0.06
5954 H 160.4417463783124 163.8740618802302 60.67597426460361 H 0.0 **** 0.06
5955 H 161.31504929404431 162.7390571241848 61.73308519806997 H 0.0 **** 0.06
5956 C 177.32156669146403 25.60202719662483 47.09410698808438 C 0.0 **** -0.24
5957 H 176.62268113414535 26.182765721272176 47.69632382066408 H 0.0 **** 0.06
5958 H 176.7661130114638 24.933655329138233 46.436260792452316 H 0.0 **** 0.06
5959 H 177.96552629336117 25.014968021162687 47.74917028805356 H 0.0 **** 0.06
5960 H 177.93262587996804 26.277630021427584 46.49551542822792 H 0.0 **** 0.06
5961 C 151.96093384372318 8.198788653143517 9.35853245622718 C 0.0 **** -0.24
5962 H 151.69840898211288 7.711838465064844 8.41893382173032 H 0.0 **** 0.06
5963 H 152.85827484970764 7.735856280489834 9.769010346626317 H 0.0 **** 0.06
5964 H 151.13994896025144 8.09054987008227 10.066344942888179 H 0.0 **** 0.06
5965 H 152.14853770050433 9.257159190986812 9.178144110252845 H 0.0 **** 0.06
5966 C 175.9851345978953 57.78315418555184 18.155535633848785 C 0.0 **** -0.24
5967 H 175.1120358972347 57.65911519381939 17.514633645189292 H 0.0 **** 0.06
5968 H 176.59783164271207 58.60256898321131 17.779099590471333 H 0.0 **** 0.06
5969 H 176.56864348777 56.86251708055073 18.157284483378703 H 0.0 **** 0.06
5970 H 175.65999010945603 58.009674613862444 19.171638952846365 H 0.0 **** 0.06
5971 C 122.51128677194184 42.53360173047213 52.526539170961044 C 0.0 **** -0.24
5972 H 123.35099069461312 43.16814109000207 52.80671847202156 H 0.0 **** 0.06
5973 H 122.47121501560322 41.66944033421862 53.19081752900007 H 0.0 **** 0.06
5974 H 122.63808088567818 42.1965253132324 51.49823324353699 H 0.0 **** 0.06
5975 H 121.5836531033694 43.09971589570203 52.61083562351904 H 0.0 **** 0.06
5976 C 109.22194295789556 139.6104991651381 143.4154326895708 C 0.0 **** -0.24
5977 H 110.30060772578163 139.48264804966118 143.50361297409944 H 0.0 **** 0.06
5978 H 109.0081403189135 140.55968056457135 142.92290198599576 H 0.0 **** 0.06
5979 H 108.77261284684816 139.60594431908692 144.4078020933888 H 0.0 **** 0.06
5980 H 108.80713570407009 138.79355050709182 142.82530542695787 H 0.0 **** 0.06
5981 C 168.67987158395013 50.00379436391451 151.45755173127694 C 0.0 **** -0.24
5982 H 168.58782904894093 49.519080813928014 152.42912894983408 H 0.0 **** 0.06
5983 H 169.27478628347697 49.375783629977136 150.79327963487674 H 0.0 **** 0.06
5984 H 169.16764206392557 50.97030423015018 151.57810032425562 H 0.0 **** 0.06
5985 H 167.68789704978738 50.14907173777851 151.02816565118675 H 0.0 **** 0.06
5986 C 120.07343366090409 137.78481955865396 86.2410421492541 C 0.0 **** -0.24
5987 H 119.4174765520681 137.2030882457351 85.59437973071937 H 0.0 **** 0.06
5988 H 120.50442517833882 138.60976662037575 85.67179345520668 H 0.0 **** 0.06
5989 H 120.87278358823637 137.14649254942583 86.61842352715172 H 0.0 **** 0.06
5990 H 119.49970640891404 138.18242368522522 87.07803758230307 H 0.0 **** 0.06
5991 C 24.84504835124858 172.64343601340153 74.7754313181731 C 0.0 **** -0.24
5992 H 25.537478280025482 173.19176069129364 74.13574996432658 H 0.0 **** 0.06
5993 H 24.074852625747667 172.17813787655854 74.1605544658945 H 0.0 **** 0.06
5994 H 24.380312332791732 173.33189779659472 75.48093763244412 H 0.0 **** 0.06
5995 H 25.388757723251842 171.87342766227533 75.3223971410406 H 0.0 **** 0.06
5996 C 88.44173027666405 92.9044125827338 41.11742297269652 C 0.0 **** -0.24
5997 H 87.4194902509736 93.23157235696225 41.311348764242425 H 0.0 **** 0.06
5998 H 89.07826968578904 93.77600727758558 40.9655327902763 H 0.0 **** 0.06
5999 H 88.46017197352545 92.28029442936285 40.223985343378345 H 0.0 **** 0.06
6000 H 88.8063325855948 92.33104071184339 41.96941135534858 H 0.0 **** 0.06
6001 C 140.21809787770218 155.49548715648555 134.1326426213829 C 0.0 **** -0.24
6002 H 139.3942037263334 154.78419063311566 134.19718769386873 H 0.0 **** 0.06
6003 H 140.22280412415688 155.95737276821947 133.1446553086201 H 0.0 **** 0.06
6004 H 141.16135557681184 154.97397415301464 134.29530935189882 H 0.0 **** 0.06
6005 H 140.0926871765381 156.26600674098864 134.89361443370314 H 0.0 **** 0.06
6006 C 45.85954710623173 136.4797222447902 119.6487283032262 C 0.0 **** -0.24
6007 H 46.62901026390901 135.7077126744971 119.6371940876803 H 0.0 **** 0.06
6008 H 44.88194321745351 136.01921178654953 119.50429447400676 H 0.0 **** 0.06
6009 H 46.04806863606623 137.19244666882008 118.84590647376912 H 0.0 **** 0.06
6010 H 45.87836178617175 136.99798679581346 120.60742493143594 H 0.0 **** 0.06
6011 C 154.5223997813635 100.07251351959292 135.12036832259315 C 0.0 **** -0.24
6012 H 155.4799921847166 100.58819576138171 135.1941787834063 H 0.0 **** 0.06
6013 H 154.5800675317957 99.30830072924192 134.34475977123043 H 0.0 **** 0.06
6014 H 153.7426288969881 100.78978081287931 134.86555202625686 H 0.0 **** 0.06
6015 H 154.28722727240884 99.60416661383772 136.07532507184146 H 0.0 **** 0.06
6016 C 82.83394293163896 169.83048586199607 148.75225879403894 C 0.0 **** -0.24
6017 H 83.80826322010266 170.3037558195748 148.8754127407779 H 0.0 **** 0.06
6018 H 82.34331215722071 169.75082881750174 149.72178524316917 H 0.0 **** 0.06
6019 H 82.96583133379055 168.83481992199984 148.32863024081104 H 0.0 **** 0.06
6020 H 82.22035945600909 170.4329361053288 148.08184145726423 H 0.0 **** 0.06
6021 C 184.6074083356088 59.47267079960369 1.1101821495117292 C 0.0 **** -0.24
6022 H 183.5226624738326 59.51128250046179 1.2154244569373134 H 0.0 **** 0.06
6023 H 185.06190400065083 59.32265615098203 2.090166686102009 H 0.0 **** 0.06
6024 H 184.96404697090912 60.409584093015326 0.6837062446311961 H 0.0 **** 0.06
6025 H 184.87943577817745 58.64684596674687 0.45327289805518944 H 0.0 **** 0.06
6026 C 14.149857386184976 9.927919671057566 79.22464742847905 C 0.0 **** -0.24
6027 H 14.510768950509942 9.318635940259583 78.39612432246486 H 0.0 **** 0.06
6028 H 13.192454591733508 10.374970289325688 78.95744714521027 H 0.0 **** 0.06
6029 H 14.872865403654771 10.714965581188778 79.4381362965101 H 0.0 **** 0.06
6030 H 14.024693430525929 9.300478659284153 80.10739435497601 H 0.0 **** 0.06
6031 C 18.852240518931183 108.20960833498725 85.18238280151837 C 0.0 **** -0.24
6032 H 19.615727042615354 107.45823426586941 84.97968916339795 H 0.0 **** 0.06
6033 H 17.944230969189817 107.96211998271485 84.63239049312818 H 0.0 **** 0.06
6034 H 19.214955632660413 109.18833223897747 84.86583159248642 H 0.0 **** 0.06
6035 H 18.636552916422225 108.23018581063786 86.25002775978777 H 0.0 **** 0.06
6036 C 54.37934238218179 85.85850813200074 120.18226375847804 C 0.0 **** -0.24
6037 H 54.91764055010674 85.1910571491544 119.50907905921851 H 0.0 **** 0.06
6038 H 54.65291242471886 85.6341535358954 121.2125155592495 H 0.0 **** 0.06
6039 H 53.305742362298304 85.71750400571972 120.05184814732347 H 0.0 **** 0.06
6040 H 54.639640997625634 86.89223555145207 119.95385047814311 H 0.0 **** 0.06
6041 C 72.08545474337936 82.96203733521895 70.66647163649124 C 0.0 **** -0.24
6042 H 71.28632130894324 83.29678527180761 71.32826915053232 H 0.0 **** 0.06
6043 H 72.92397446222813 83.65677769844115 70.72924832030452 H 0.0 **** 0.06
6044 H 71.71763454500164 82.92669428734257 69.64132846699229 H 0.0 **** 0.06
6045 H 72.41346345504525 81.96743049105316 70.96893961695018 H 0.0 **** 0.06
6046 C 166.10623055335552 140.74150926977518 85.56886615687921 C 0.0 **** -0.24
6047 H 167.00573664477616 140.46013330930197 85.02087461008398 H 0.0 **** 0.06
6048 H 165.69825497487295 141.66046208012733 85.14795640115011 H 0.0 **** 0.06
6049 H 166.35504532893287 140.9006336559512 86.61796338487312 H 0.0 **** 0.06
6050 H 165.36660694012107 139.94508915752 85.48712096437544 H 0.0 **** 0.06
6051 C 116.50971843840661 169.55218791270408 117.43523831949197 C 0.0 **** -0.24
6052 H 116.41210268005311 168.82229163872876 118.23959643938055 H 0.0 **** 0.06
6053 H 116.3352946228586 170.55300757559982 117.83082612176536 H 0.0 **** 0.06
6054 H 115.77793077714044 169.3357267748261 116.6579129559605 H 0.0 **** 0.06
6055 H 117.51346941639254 169.49635843598747 117.01509265005483 H 0.0 **** 0.06
6056 C 9.897407907542373 52.69684489376732 42.392232777715094 C 0.0 **** -0.24
6057 H 10.23707667569596 53.49463945858895 41.73294355116889 H 0.0 **** 0.06
6058 H 9.123480444400201 52.11519769823357 41.89124755943908 H 0.0 **** 0.06
6059 H 9.492979648622281 53.1294541081993 43.307265788942004 H 0.0 **** 0.06
6060 H 10.737783332256669 52.047721206883864 42.63921042843259 H 0.0 **** 0.06
6061 C 181.47051674917014 155.7980457357598 66.32098284736207 C 0.0 **** -0.24
6062 H 180.3945381497519 155.891005659228 66.47072892103364 H 0.0 **** 0.06
6063 H 181.68170653590423 154.88621038909326 65.76295191498349 H 0.0 **** 0.06
6064 H 181.96858678659453 155.75623071639905 67.28981003203285 H 0.0 **** 0.06
6065 H 181.83550811362832 156.6601628030014 65.76243576984723 H 0.0 **** 0.06
6066 C 73.40417784057735 179.68113768901463 131.8585899330879 C 0.0 **** -0.24
6067 H 73.38325491603024 178.59447068930052 131.76819380703853 H 0.0 **** 0.06
6068 H 73.44270629122224 180.12664652044475 130.8641213195549 H 0.0 **** 0.06
6069 H 74.28443318522324 179.98200130838563 132.4263213517483 H 0.0 **** 0.06
6070 H 72.5057123179983 180.01887236050868 132.3739677851529 H 0.0 **** 0.06
6071 C 47.14447443581544 80.24425660151697 85.14856024491955 C 0.0 **** -0.24
6072 H 46.351567178095976 80.73168870364644 84.58079409301978 H 0.0 **** 0.06
6073 H 47.87835623067497 80.98764587477982 85.45843318867942 H 0.0 **** 0.06
6074 H 47.62766425743108 79.49311492153224 84.5238514069194 H 0.0 **** 0.06
6075 H 46.71735240400096 79.76422531255407 86.02939343588481 H 0.0 **** 0.06
6076 C 130.74855822304187 69.64533908667455 113.55845064488783 C 0.0 **** -0.24
6077 H 130.822412257096 70.27349357365912 112.67100381672866 H 0.0 **** 0.06
6078 H 131.3850193589559 68.76857214578752 113.43620771877328 H 0.0 **** 0.06
6079 H 129.7146930646353 69.32859317912836 113.69396896234782 H 0.0 **** 0.06
6080 H 131.07283998168646 70.21124526954767 114.43221658352978 H 0.0 **** 0.06
6081 C 66.19787711869479 8.942118624033355 62.6516428698726 C 0.0 **** -0.24
6082 H 67.15569840380259 9.07956396264197 62.149336647712346 H 0.0 **** 0.06
6083 H 65.92766657732736 7.886147347238079 62.63523264516141 H 0.0 **** 0.06
6084 H 65.4322102899138 9.522518349579684 62.1365148876032 H 0.0 **** 0.06
6085 H 66.27783183927048 9.28074255231573 63.68441604469285 H 0.0 **** 0.06
6086 C 135.84217277340377 145.09027542897422 170.93208871183137 C 0.0 **** -0.24
6087 H 135.594090088852 144.74637098219915 171.936268017804 H 0.0 **** 0.06
6088 H 135.57100024939723 146.1403208689759 170.82977858432915 H 0.0 **** 0.06
6089 H 135.2931091802481 144.4989157524103 170.20006190864186 H 0.0 **** 0.06
6090 H 136.91349348993384 144.97372621443492 170.76361139718813 H 0.0 **** 0.06
6091 C 151.10767359740197 165.94174703579333 19.9438871275351 C 0.0 **** -0.24
6092 H 150.7374600248711 165.14839310405154 19.292935620175413 H 0.0 **** 0.06
6093 H 150.4289620248262 166.0636656461296 20.78902904364015 H 0.0 **** 0.06
6094 H 151.16142131538302 166.87428968522715 19.383384925882957 H 0.0 **** 0.06
6095 H 152.10017928943446 165.67797176413902 20.308542318934606 H 0.0 **** 0.06
6096 C 24.199249189693774 114.67983832997466 93.40652877662835 C 0.0 **** -0.24
6097 H 23.72099044855713 115.56639008751254 92.98970635704863 H 0.0 **** 0.06
6098 H 25.13840843980131 114.96459681660941 93.88074694128282 H 0.0 **** 0.06
6099 H 24.39684853189638 113.96549515688012 92.60731060008028 H 0.0 **** 0.06
6100 H 23.540201872568048 114.22549909339823 94.14574446437193 H 0.0 **** 0.06
6101 C 185.50266038440247 17.312388326907353 118.82834427208854 C 0.0 **** -0.24
6102 H 186.38009041440725 17.333558389878476 119.47420472018524 H 0.0 **** 0.06
6103 H 185.60242559987157 18.074700244569158 118.05524542891419 H 0.0 **** 0.06
6104 H 184.60990590932158 17.51129572106936 119.42154969015365 H 0.0 **** 0.06
6105 H 185.41820046072533 16.331406621890665 118.36251196501479 H 0.0 **** 0.06
6106 C 98.02833615287297 173.34608963452487 169.67217435810994 C 0.0 **** -0.24
6107 H 97.26563718036992 172.97955012925988 168.98568589316778 H 0.0 **** 0.06
6108 H 98.54179802041251 174.19692837822603 169.2242293737145 H 0.0 **** 0.06
6109 H 98.74742929498883 172.55147322010617 169.87363947852597 H 0.0 **** 0.06
6110 H 97.55826150224756 173.65569995018544 170.6058154286978 H 0.0 **** 0.06
6111 C 171.04725502170686 93.58205455312401 173.46809804848263 C 0.0 **** -0.24
6112 H 170.19946953778444 93.30637102572513 172.84067017474763 H 0.0 **** 0.06
6113 H 171.6991312184249 92.71792347223402 173.5971300897058 H 0.0 **** 0.06
6114 H 170.68526132341933 93.9134304966762 174.44234850750001 H 0.0 **** 0.06
6115 H 171.60358100289292 94.38970194389475 172.9939425662384 H 0.0 **** 0.06
6116 C 25.054705492948045 13.422089190376113 8.173514892748074 C 0.0 **** -0.24
6117 H 26.107537540556507 13.240967702734338 7.953219429354533 H 0.0 **** 0.06
6118 H 24.89162131273065 13.352687741122907 9.24852853296585 H 0.0 **** 0.06
6119 H 24.444594037263585 12.676523515999634 7.6638667850186835 H 0.0 **** 0.06
6120 H 24.77783508805291 14.416782694841203 7.826346436337303 H 0.0 **** 0.06
6121 C 170.31165091951743 105.68640631543951 176.55232433143289 C 0.0 **** -0.24
6122 H 169.29881293554874 105.71509861822187 176.95287683561355 H 0.0 **** 0.06
6123 H 170.73200385092633 106.69278902691343 176.55758262257592 H 0.0 **** 0.06
6124 H 170.28710065256757 105.30891210636474 175.5298715061541 H 0.0 **** 0.06
6125 H 170.92825283624666 105.0312576054846 177.16699219777053 H 0.0 **** 0.06
6126 C 133.2798288617592 27.90875355387132 113.91814154960899 C 0.0 **** -0.24
6127 H 134.3664140730906 27.977529274501563 113.9620143512049 H 0.0 **** 0.06
6128 H 132.98210283138798 27.457718046186756 112.97104463339487 H 0.0 **** 0.06
6129 H 132.84899863486754 28.907503233291266 113.99539296338408 H 0.0 **** 0.06
6130 H 132.92078460261376 27.293140030705615 114.7430182546624 H 0.0 **** 0.06
6131 C 7.683891596224903 173.82459612016808 13.783449367596418 C 0.0 **** -0.24
6132 H 7.002035869728488 173.07812842791662 14.190222158741541 H 0.0 **** 0.06
6133 H 8.535535713485018 173.32453891686595 13.321117799366867 H 0.0 **** 0.06
6134 H 8.035052021719807 174.4716833811452 14.587177426894442 H 0.0 **** 0.06
6135 H 7.163775012871568 174.42366033169807 13.035689924784414 H 0.0 **** 0.06
6136 C 183.64970901768507 119.28394531412552 121.25560297214044 C 0.0 **** -0.24
6137 H 184.42975143545385 119.31421549124137 122.01644652380996 H 0.0 **** 0.06
6138 H 182.79554478887496 118.72108536445641 121.6330503586586 H 0.0 **** 0.06
6139 H 184.03577114501576 118.80042230971678 120.35824858238756 H 0.0 **** 0.06
6140 H 183.33774766436767 120.30080238550148 121.0153339624563 H 0.0 **** 0.06
6141 C 40.468938749814015 95.54198696161599 144.001985652017 C 0.0 **** -0.24
6142 H 41.05909245619051 94.88199837268012 144.63833229173423 H 0.0 **** 0.06
6143 H 39.58470859241339 95.87471350733112 144.5449878812194 H 0.0 **** 0.06
6144 H 40.16396319479816 95.00350083595093 143.10456436161297 H 0.0 **** 0.06
6145 H 41.069780171813534 96.40640263257161 143.72020828456667 H 0.0 **** 0.06
6146 C 47.46360455501309 174.23836917457243 13.061938814394125 C 0.0 **** -0.24
6147 H 48.16079326347881 173.99567965788563 13.86368694086704 H 0.0 **** 0.06
6148 H 46.53465508519275 174.61626495054665 13.489820861654039 H 0.0 **** 0.06
6149 H 47.25592166035631 173.34173274528968 12.47764325410867 H 0.0 **** 0.06
6150 H 47.90223918885721 174.99868739860324 12.416273884834254 H 0.0 **** 0.06
6151 C 84.52596115615478 72.44064706952241 162.3976578101877 C 0.0 **** -0.24
6152 H 83.46873159448904 72.34910774969987 162.64459007835103 H 0.0 **** 0.06
6153 H 84.64181397388234 72.48920456089472 161.31489206481862 H 0.0 **** 0.06
6154 H 85.06556186106877 71.57613591323252 162.7833881359403 H 0.0 **** 0.06
6155 H 84.9261494241457 73.34939105082334 162.8468048683788 H 0.0 **** 0.06
6156 C 56.15309363222934 36.73442524210482 52.26519321130772 C 0.0 **** -0.24
6157 H 55.65047110519696 36.92188741595666 51.316572169570506 H 0.0 **** 0.06
6158 H 55.4155503393188 36.70655419328834 53.06802475539878 H 0.0 **** 0.06
6159 H 56.872440958419986 37.53024535419712 52.45850937250265 H 0.0 **** 0.06
6160 H 56.67375158204834 35.77798384736484 52.216711011067275 H 0.0 **** 0.06
6161 C 176.27805238185715 22.746445261176632 167.8738085565387 C 0.0 **** -0.24
6162 H 175.3125792264655 22.33485318241941 168.16882876269483 H 0.0 **** 0.06
6163 H 176.131216543268 23.72574439966064 167.41933438436124 H 0.0 **** 0.06
6164 H 176.75296398957357 22.078367956954082 167.15476053078373 H 0.0 **** 0.06
6165 H 176.91436245189686 22.844288830063817 168.7529692223742 H 0.0 **** 0.06
6166 C 42.235576522331826 143.3117639909644 185.41735165330104 C 0.0 **** -0.24
6167 H 41.501586845310726 142.7662039761459 184.82461075037912 H 0.0 **** 0.06
6168 H 42.611678954364294 144.1579070734188 184.8406522041949 H 0.0 **** 0.06
6169 H 43.0617016034731 142.64914882443122 185.6722924619508 H 0.0 **** 0.06
6170 H 41.76637702826724 143.67573237212997 186.3312801024546 H 0.0 **** 0.06
6171 C 7.317257581392134 25.747261481699212 1.4743224600178095 C 0.0 **** -0.24
6172 H 7.124625507805668 25.07148088599763 0.6415218745412972 H 0.0 **** 0.06
6173 H 6.95461911984119 25.297955567064605 2.3982552920528946 H 0.0 **** 0.06
6174 H 6.800925755752765 26.692359844513817 1.3009588617201544 H 0.0 **** 0.06
6175 H 8.389263167604682 25.929291995950138 1.5537849773501193 H 0.0 **** 0.06
6176 C 99.75663514150538 177.80035237216342 118.41032138070646 C 0.0 **** -0.24
6177 H 100.01127239865924 178.77058396074557 117.98290482265473 H 0.0 **** 0.06
6178 H 100.4942155633273 177.06068931480777 118.09892445400244 H 0.0 **** 0.06
6179 H 98.76913241365476 177.49897900213384 118.06164702807384 H 0.0 **** 0.06
6180 H 99.75085743542978 177.87389438029544 119.49842458661566 H 0.0 **** 0.06
6181 C 97.79773670313666 70.45402923445846 15.586422960949221 C 0.0 **** -0.24
6182 H 96.7827140884096 70.83043776948597 15.713674957763118 H 0.0 **** 0.06
6183 H 98.31409057122336 70.47122694317798 16.547277963431632 H 0.0 **** 0.06
6184 H 98.33178092446703 71.08329411878015 14.87554617891982 H 0.0 **** 0.06
6185 H 97.76165519974317 69.43145584666803 15.211293457315811 H 0.0 **** 0.06
6186 C 24.964973577510335 83.9525850019009 12.541099197983186 C 0.0 **** -0.24
6187 H 25.5260417815293 84.24910816100902 11.654580239893079 H 0.0 **** 0.06
6188 H 24.83663774114288 82.86978913462315 12.544621495393983 H 0.0 **** 0.06
6189 H 23.98760405453646 84.43517205233911 12.530286178215505 H 0.0 **** 0.06
6190 H 25.51106426060943 84.256921830274 13.434228211152714 H 0.0 **** 0.06
6191 C 151.66877838259512 83.7124235791828 51.48011784579472 C 0.0 **** -0.24
6192 H 151.83524219623325 82.66817038039812 51.214480057582705 H 0.0 **** 0.06
6193 H 152.57896968681135 84.28260906759675 51.2939494687042 H 0.0 **** 0.06
6194 H 151.40598419929086 83.7808920887632 52.53568150574725 H 0.0 **** 0.06
6195 H 150.85615181520964 84.11534251715028 50.875819286140995 H 0.0 **** 0.06
6196 C 13.165374202054366 46.468981787746344 160.77891814784985 C 0.0 **** -0.24
6197 H 13.554432800995947 46.9470977819181 161.67698096625384 H 0.0 **** 0.06
6198 H 13.78333584869032 45.60544328524455 160.5305151480621 H 0.0 **** 0.06
6199 H 13.18438155155443 47.178720647536906 159.95158819780494 H 0.0 **** 0.06
6200 H 12.140146050589578 46.14486290845885 160.9550644785055 H 0.0 **** 0.06
6201 C 125.35780135096924 178.8831786126275 121.70923660923755 C 0.0 **** -0.24
6202 H 125.07131720005826 179.24648385664537 122.6953636065508 H 0.0 **** 0.06
6203 H 124.73116745517721 178.0331422484488 121.43909311756481 H 0.0 **** 0.06
6204 H 126.40280698212875 178.57330765001296 121.72697321691284 H 0.0 **** 0.06
6205 H 125.22677922813348 179.6791406002258 120.97643372205376 H 0.0 **** 0.06
6206 C 112.86123005224715 55.05904922748505 174.0665828418215 C 0.0 **** -0.24
6207 H 112.13038293281198 54.525176332530236 173.45928260302838 H 0.0 **** 0.06
6208 H 112.40800870830401 55.96724382153059 174.4651695708866 H 0.0 **** 0.06
6209 H 113.72220986047387 55.321194432645285 173.45112769195583 H 0.0 **** 0.06
6210 H 113.1840104918769 54.42132843773891 174.89017459259446 H 0.0 **** 0.06
6211 C 141.72476174538832 165.90831601124694 120.37160349482131 C 0.0 **** -0.24
6212 H 141.5461385603457 164.85498578196717 120.15326528629753 H 0.0 **** 0.06
6213 H 142.74304438152228 166.03508207353076 120.73946108442381 H 0.0 **** 0.06
6214 H 141.01907445074625 166.2453953209381 121.13168597392162 H 0.0 **** 0.06
6215 H 141.58975383665768 166.4954686436927 119.46412017571656 H 0.0 **** 0.06
6216 C 78.05343731765043 9.495143087645907 110.51054002166576 C 0.0 **** -0.24
6217 H 77.10226018358499 9.100318190473402 110.1549465769114 H 0.0 **** 0.06
6218 H 78.34322323947652 10.349630004697943 109.89841208636754 H 0.0 **** 0.06
6219 H 78.8175400000971 8.721646757201214 110.44036270845622 H 0.0 **** 0.06
6220 H 77.94956238964782 9.810574466737954 111.54874829034502 H 0.0 **** 0.06
6221 C 4.2831845936997865 152.0731199923191 70.5979313995901 C 0.0 **** -0.24
6222 H 4.06123966594879 152.31147398822958 71.63760546271027 H 0.0 **** 0.06
6223 H 3.471712292696793 152.42743312706605 69.96289498287018 H 0.0 **** 0.06
6224 H 4.386073600838074 150.99335487116903 70.48759322756501 H 0.0 **** 0.06
6225 H 5.214205118837526 152.55809998982164 70.30415333341551 H 0.0 **** 0.06
6226 C 90.74255084220273 175.4235454859771 106.4679157074463 C 0.0 **** -0.24
6227 H 91.29542696499037 176.32676917595444 106.72465936295647 H 0.0 **** 0.06
6228 H 91.30635386784515 174.84894001977406 105.73331237267321 H 0.0 **** 0.06
6229 H 89.77387282808265 175.69698069007538 106.04993071937012 H 0.0 **** 0.06
6230 H 90.59452191591349 174.82155596450764 107.36517288779673 H 0.0 **** 0.06
6231 C 48.07799714694711 40.97307553785788 49.71808765772124 C 0.0 **** -0.24
6232 H 47.450612810900296 41.320004237736526 50.538958980066866 H 0.0 **** 0.06
6233 H 47.451510170664235 40.727128363250245 48.86124963599394 H 0.0 **** 0.06
6234 H 48.62954449012659 40.086202580723636 50.032000509802884 H 0.0 **** 0.06
6235 H 48.78096507635843 41.759267975579576 49.44136410883479 H 0.0 **** 0.06
6236 C 39.20691392674718 60.07974931171968 4.663633983379846 C 0.0 **** -0.24
6237 H 38.91643724696095 60.83643998373019 5.392019783500949 H 0.0 **** 0.06
6238 H 40.27135739464234 60.17531577909426 4.446151682874017 H 0.0 **** 0.06
6239 H 38.63383056533914 60.219317112191646 3.746584544973821 H 0.0 **** 0.06
6240 H 39.00603050004625 59.08792437186278 5.069779922170532 H 0.0 **** 0.06
6241 C 76.71885368246889 21.662254523185652 7.367124836388655 C 0.0 **** -0.24
6242 H 77.56045315375478 22.24955551058204 7.732808052501582 H 0.0 **** 0.06
6243 H 76.68560388151425 20.708629664270916 7.89354238030063 H 0.0 **** 0.06
6244 H 76.83797116363002 21.48433040651213 6.2977075033775805 H 0.0 **** 0.06
6245 H 75.79155109398995 22.208290301987688 7.543108425007375 H 0.0 **** 0.06
6246 C 146.17557334742713 72.30934983526383 114.05943169776221 C 0.0 **** -0.24
6247 H 146.54880529536166 72.51163090307827 115.06362473635174 H 0.0 **** 0.06
6248 H 147.0155979052372 72.13150555503442 113.38817503195456 H 0.0 **** 0.06
6249 H 145.60156726460468 73.16583717380728 113.70537968669451 H 0.0 **** 0.06
6250 H 145.53487731901907 71.42749746069302 114.08197866521498 H 0.0 **** 0.06
6251 C 12.895014166943895 74.50240942733035 101.96060774982976 C 0.0 **** -0.24
6252 H 12.121209021555842 74.11461144899226 102.62378096204719 H 0.0 **** 0.06
6253 H 13.766368544487477 73.84914848821563 101.99896191511453 H 0.0 **** 0.06
6254 H 13.17699717884966 75.50545841299015 102.28093208504595 H 0.0 **** 0.06
6255 H 12.513050964509546 74.541044843799 100.9406794344855 H 0.0 **** 0.06
6256 C 109.39260324105196 133.0102973374066 129.21010441900927 C 0.0 **** -0.24
6257 H 108.76613184603987 132.18554454973764 128.87230453547278 H 0.0 **** 0.06
6258 H 109.7400188940557 133.58033493838354 128.34853732545406 H 0.0 **** 0.06
6259 H 110.24961950469334 132.61665586250984 129.75537851798106 H 0.0 **** 0.06
6260 H 108.81257137291011 133.66126793604616 129.86556739859617 H 0.0 **** 0.06
6261 C 42.627013852574976 138.86502087699427 132.4571693225289 C 0.0 **** -0.24
6262 H 42.58362381388491 139.64634341684518 131.69866240359954 H 0.0 **** 0.06
6263 H 43.47630348874071 139.04500814802475 133.11640680921113 H 0.0 **** 0.06
6264 H 42.74218790558197 137.8948464714843 131.97189520370722 H 0.0 **** 0.06
6265 H 41.70580693348791 138.87283989808583 133.03950172825012 H 0.0 **** 0.06
6266 C 76.37958916862925 149.3184726773165 90.40874937049506 C 0.0 **** -0.24
6267 H 76.16714470463683 148.53061678601082 91.13182669832145 H 0.0 **** 0.06
6268 H 75.47520235984199 149.5454392296338 89.84339101413764 H 0.0 **** 0.06
6269 H 77.16142935080381 148.98339731068566 89.7270861147648 H 0.0 **** 0.06
6270 H 76.71417311091656 150.21305432748062 90.93440289769723 H 0.0 **** 0.06
6271 C 97.64153958860139 111.54608968031408 2.456375229539546 C 0.0 **** -0.24
6272 H 98.30280831734514 111.78120032816224 3.290099406763389 H 0.0 **** 0.06
6273 H 97.6991975489557 112.34015992947081 1.7113259803660341 H 0.0 **** 0.06
6274 H 96.61747427184046 111.45956916805642 2.8176559472854024 H 0.0 **** 0.06
6275 H 97.9482105973335 110.6023639267799 2.0051879502018366 H 0.0 **** 0.06
6276 C 130.21813169179143 176.97265849202378 26.160855092933105 C 0.0 **** -0.24
6277 H 129.69898757430457 177.91421245014763 26.3400530101581 H 0.0 **** 0.06
6278 H 129.9399706536749 176.2531134515447 26.930501582761394 H 0.0 **** 0.06
6279 H 131.29507234392742 177.14046927872988 26.193069329561837 H 0.0 **** 0.06
6280 H 129.93976467801167 176.5846513743909 25.18205603506391 H 0.0 **** 0.06
6281 C 1.3416389959062371 50.72430939674426 146.42704432472908 C 0.0 **** -0.24
6282 H 2.2753338240447647 50.245746747111966 146.72243240933253 H 0.0 **** 0.06
6283 H 0.741724581208473 50.92896945671261 147.3147133838835 H 0.0 **** 0.06
6284 H 0.7895520943138763 50.06273679399946 145.75979317431288 H 0.0 **** 0.06
6285 H 1.5605926032059187 51.66062579453046 145.9132065117388 H 0.0 **** 0.06
6286 C 168.9884054728306 179.9263182602869 152.15985975117047 C 0.0 **** -0.24
6287 H 169.54717917045224 180.73330968449181 151.6851006774859 H 0.0 **** 0.06
6288 H 168.70837526283327 180.2235544482179 153.17066789474444 H 0.0 **** 0.06
6289 H 169.60912004473437 179.03143513368855 152.20168040375876 H 0.0 **** 0.06
6290 H 168.0888673804493 179.71822689542336 151.5798868331219 H 0.0 **** 0.06
6291 C 109.52600574076341 2.1621757789384333 94.99916535175669 C 0.0 **** -0.24
6292 H 109.7162302959331 1.1708969066800137 95.4104209602267 H 0.0 **** 0.06
6293 H 109.50152456243735 2.892218988093447 95.80924929174137 H 0.0 **** 0.06
6294 H 108.5672875199739 2.161505694970913 94.4814064644147 H 0.0 **** 0.06
6295 H 110.31777698465218 2.4236268001521353 94.2976690897388 H 0.0 **** 0.06
6296 C 142.15437767203827 7.681112056474319 5.957025989654397 C 0.0 **** -0.24
6297 H 143.0890499193548 7.217362923851397 6.271776504260934 H 0.0 **** 0.06
6298 H 141.42613655831474 7.613568697540273 6.76490972207025 H 0.0 **** 0.06
6299 H 141.770947104654 7.163832006216865 5.077554721240205 H 0.0 **** 0.06
6300 H 142.33228450215313 8.728994092597304 5.713026420804368 H 0.0 **** 0.06
6301 C 64.82441171388032 96.56161943747719 66.86197829451288 C 0.0 **** -0.24
6302 H 64.92697656300798 97.56599206527886 66.45327987833704 H 0.0 **** 0.06
6303 H 65.7205663559146 95.98375671455779 66.6359785289091 H 0.0 **** 0.06
6304 H 63.95527827576451 96.07483113534198 66.41771528795502 H 0.0 **** 0.06
6305 H 64.69378593752504 96.62109491388782 67.94300695518422 H 0.0 **** 0.06
6306 C 90.58860273346698 11.898920004757002 74.55720911363979 C 0.0 **** -0.24
6307 H 90.47087200776048 12.96801888045458 74.37624373023627 H 0.0 **** 0.06
6308 H 90.49470114359156 11.359598136296476 73.61477727475561 H 0.0 **** 0.06
6309 H 89.8178941517765 11.561112179150186 75.24885459955375 H 0.0 **** 0.06
6310 H 91.57209870861249 11.709645681972823 74.98832543413323 H 0.0 **** 0.06
6311 C 86.8268115069986 50.78597680198703 18.571154373733826 C 0.0 **** -0.24
6312 H 86.94209422742053 50.05149822271085 17.774038023882603 H 0.0 **** 0.06
6313 H 86.02594619194402 51.47815785459011 18.312327238971918 H 0.0 **** 0.06
6314 H 87.75904723097794 51.33702429274598 18.6940672462258 H 0.0 **** 0.06
6315 H 86.58085027715028 50.275266737530615 19.501801809660748 H 0.0 **** 0.06
6316 C 17.77241725397304 125.07301665905426 76.71131219629059 C 0.0 **** -0.24
6317 H 17.059336130357288 124.44146058882116 77.24129578819517 H 0.0 **** 0.06
6318 H 18.551489298765553 124.45083017588253 76.26975912411872 H 0.0 **** 0.06
6319 H 18.223559999384236 125.77759199476118 77.41137807240628 H 0.0 **** 0.06
6320 H 17.25598163202536 125.62306524791204 75.92474868484985 H 0.0 **** 0.06
6321 C 159.9785170663726 93.23827052422178 165.53942403014003 C 0.0 **** -0.24
6322 H 160.00073327685863 92.32784213066248 164.94053009790892 H 0.0 **** 0.06
6323 H 158.9466721702338 93.57049111542227 165.65657337724053 H 0.0 **** 0.06
6324 H 160.5564045749254 94.01567789127722 165.03877025976675 H 0.0 **** 0.06
6325 H 160.41076881829326 93.03788764564973 166.51999503641605 H 0.0 **** 0.06
6326 C 120.60850715357553 17.809790161472776 132.98367842414353 C 0.0 **** -0.24
6327 H 121.5434846938863 17.250808813860303 133.02830160774351 H 0.0 **** 0.06
6328 H 119.76848045372314 17.12090156911554 133.0808126213662 H 0.0 **** 0.06
6329 H 120.54271998719715 18.330738155514716 132.02821015537552 H 0.0 **** 0.06
6330 H 120.57986665551415 18.535530832792958 133.79556420915196 H 0.0 **** 0.06
6331 C 0.3322726498729267 164.1581528417065 87.35928083132144 C 0.0 **** -0.24
6332 H 0.35578838494353704 163.99117727957275 88.43570756408654 H 0.0 **** 0.06
6333 H -0.3142071479483164 165.00690828275887 87.13751198608331 H 0.0 **** 0.06
6334 H -0.05321344611067502 163.26797215970277 86.8622816516279 H 0.0 **** 0.06
6335 H 1.3409242816853748 164.3657134579714 87.00212563060889 H 0.0 **** 0.06
6336 C 80.99661896520286 132.83401435765865 143.72637881905678 C 0.0 **** -0.24
6337 H 80.82027838917685 131.9799989402888 144.38111010463038 H 0.0 **** 0.06
6338 H 81.89494425097467 133.35915822961556 144.05077665405048 H 0.0 **** 0.06
6339 H 80.14259171427841 133.5103773495872 143.77402276619205 H 0.0 **** 0.06
6340 H 81.1276431574293 132.48510019023422 142.70291319396733 H 0.0 **** 0.06
6341 C 85.10449072161221 23.117470987612194 145.32259231542542 C 0.0 **** -0.24
6342 H 85.46642126359383 22.474890794643272 144.5199340175662 H 0.0 **** 0.06
6343 H 85.16470978718964 22.58196183250834 146.27079588342983 H 0.0 **** 0.06
6344 H 84.06899726605226 23.394502313329156 145.12689537823618 H 0.0 **** 0.06
6345 H 85.718934301705 24.01636653882082 145.37308229616036 H 0.0 **** 0.06
6346 C 172.3600048504032 39.817635369239156 102.35537737006076 C 0.0 **** -0.24
6347 H 172.17089399774068 40.34953462954604 103.28826302575577 H 0.0 **** 0.06
6348 H 171.66310745268527 38.98424885556568 102.26519807770153 H 0.0 **** 0.06
6349 H 173.3821882191636 39.43983006946968 102.35374431501724 H 0.0 **** 0.06
6350 H 172.22296875463354 40.49926718008402 101.51564077004856 H 0.0 **** 0.06
6351 C 162.84925083779063 177.38661483511876 150.78533562747086 C 0.0 **** -0.24
6352 H 163.47862308537051 178.26444360081922 150.6389881112203 H 0.0 **** 0.06
6353 H 163.44067001096784 176.58547184145823 151.22972470576383 H 0.0 **** 0.06
6354 H 162.45482509559028 177.05836300054008 149.82353084618273 H 0.0 **** 0.06
6355 H 162.02324446893383 177.64005829650682 151.44968737790506 H 0.0 **** 0.06
6356 C 18.209181803014978 67.57110623679539 86.16658663087664 C 0.0 **** -0.24
6357 H 19.188450673976682 67.12191335501329 86.00005253295554 H 0.0 **** 0.06
6358 H 18.234523832331895 68.6187327909356 85.86696062430896 H 0.0 **** 0.06
6359 H 17.9525484520057 67.5005270374185 87.2241202192801 H 0.0 **** 0.06
6360 H 17.462069620449057 67.04096755995319 85.57502956733164 H 0.0 **** 0.06
6361 C 150.6247954210312 138.6282802299287 173.10925223140617 C 0.0 **** -0.24
6362 H 151.22942789192322 138.51614673625448 174.00960829158248 H 0.0 **** 0.06
6363 H 150.99203812914558 139.47566934893752 172.53020919274996 H 0.0 **** 0.06
6364 H 149.58599880001444 138.8017563806323 173.38905028917833 H 0.0 **** 0.06
6365 H 150.69352765004115 137.72068378926917 172.51024645172532 H 0.0 **** 0.06
6366 C 10.084617239954824 1.268485923960327 87.72761466805639 C 0.0 **** -0.24
6367 H 10.48675253345857 1.4657165848869624 86.7332562485438 H 0.0 **** 0.06
6368 H 9.20775413706712 0.6265958108625682 87.6426349910883 H 0.0 **** 0.06
6369 H 9.80341055355666 2.2098762515142027 88.19937987219794 H 0.0 **** 0.06
6370 H 10.842608341707539 0.7704382209834364 88.33344498775602 H 0.0 **** 0.06
6371 C 95.90941921587002 88.89958684680387 145.0445827405777 C 0.0 **** -0.24
6372 H 94.91060407366625 89.33383389244027 145.07675659504798 H 0.0 **** 0.06
6373 H 95.95244634355701 88.03679921346283 145.70976056974547 H 0.0 **** 0.06
6374 H 96.63940156843977 89.64345202091455 145.3655387478313 H 0.0 **** 0.06
6375 H 96.13603139525215 88.58479591012762 144.02602054564318 H 0.0 **** 0.06
6376 C 77.71350500348183 117.93291472910643 153.37113307227963 C 0.0 **** -0.24
6377 H 77.35154126013592 117.14744872903735 152.7070120009165 H 0.0 **** 0.06
6378 H 77.91378698624017 117.50981885506114 154.35547669663873 H 0.0 **** 0.06
6379 H 76.95794505373634 118.7126158874856 153.45669930601514 H 0.0 **** 0.06
6380 H 78.63126109006681 118.35846310231922 152.96447015702984 H 0.0 **** 0.06
6381 C 84.0089203003753 158.7007062032183 92.55165405443172 C 0.0 **** -0.24
6382 H 83.19852313382248 157.97305851764065 92.50894995902011 H 0.0 **** 0.06
6383 H 84.46968597421197 158.78891982469102 91.56753631467906 H 0.0 **** 0.06
6384 H 84.7562010409792 158.3707156885083 93.27346852088876 H 0.0 **** 0.06
6385 H 83.61203646996596 159.6692289868058 92.85588621292122 H 0.0 **** 0.06
6386 C 60.504348919935865 21.368545712189402 46.47721420088325 C 0.0 **** -0.24
6387 H 60.33567328125048 22.23420088189023 45.83738610148902 H 0.0 **** 0.06
6388 H 60.431788536241754 21.670079444431437 47.52261402183649 H 0.0 **** 0.06
6389 H 61.497397303398884 20.962496790318554 46.28401598554558 H 0.0 **** 0.06
6390 H 59.75336908069295 20.607352151723866 46.264289277178335 H 0.0 **** 0.06
6391 C 156.84524703581206 67.45899431421822 19.2032253323126 C 0.0 **** -0.24
6392 H 157.24146250806484 66.89242229667474 18.36099508295625 H 0.0 **** 0.06
6393 H 156.38600905327036 66.7741692993626 19.917898404720695 H 0.0 **** 0.06
6394 H 156.0970088516062 68.16651981284355 18.845731758275235 H 0.0 **** 0.06
6395 H 157.65546086319398 68.00212091274489 19.689437640387197 H 0.0 **** 0.06
6396 C 53.31347203643931 44.69014041400038 175.06338509763003 C 0.0 **** -0.24
6397 H 54.142995504012276 44.12760561436005 175.4912364351693 H 0.0 **** 0.06
6398 H 52.97840133532628 45.4424924434997 175.77704986511915 H 0.0 **** 0.06
6399 H 52.49121441725421 44.01055290495816 174.83924319937853 H 0.0 **** 0.06
6400 H 53.640612902249615 45.179187363158746 174.14582131298727 H 0.0 **** 0.06
6401 C 119.06432104336513 32.97190560905831 22.23574417646762 C 0.0 **** -0.24
6402 H 119.82186346666056 32.1957370622159 22.125040796105395 H 0.0 **** 0.06
6403 H 119.10864138873355 33.64698398359883 21.380745186018913 H 0.0 **** 0.06
6404 H 119.24867136777446 33.53217396054751 23.152656772135003 H 0.0 **** 0.06
6405 H 118.07767231902996 32.51105673827968 22.284395788102813 H 0.0 **** 0.06
6406 C 135.69580094782975 62.26806822368087 40.58567889753827 C 0.0 **** -0.24
6407 H 136.4303444267905 62.52472162392081 39.822213588644416 H 0.0 **** 0.06
6408 H 134.69258342174766 62.44508425404439 40.19703600051585 H 0.0 **** 0.06
6409 H 135.85861573940582 62.885080360213806 41.468340602727736 H 0.0 **** 0.06
6410 H 135.80140466621077 61.21638333683515 40.852137372584366 H 0.0 **** 0.06
6411 C 96.22175503189578 35.39477428738127 123.65152115777624 C 0.0 **** -0.24
6412 H 95.14011780028312 35.496203036741576 123.5597961092937 H 0.0 **** 0.06
6413 H 96.52427318518323 35.63696751101375 124.67038404177691 H 0.0 **** 0.06
6414 H 96.71039369696405 36.077381858815215 122.95536488753629 H 0.0 **** 0.06
6415 H 96.51114787749822 34.37043431601069 123.41847878374995 H 0.0 **** 0.06
6416 C 16.05541634814739 80.06641878102421 10.102094777465084 C 0.0 **** -0.24
6417 H 15.75213903653912 80.60912885969856 10.99755444286086 H 0.0 **** 0.06
6418 H 15.481596810746964 80.42632284394804 9.247842134380676 H 0.0 **** 0.06
6419 H 15.870238443325434 79.001541146261 10.24202377080826 H 0.0 **** 0.06
6420 H 17.11839614808855 80.22960648827878 9.921764235415878 H 0.0 **** 0.06
6421 C 100.52372028321956 153.0209409831469 67.9549206577272 C 0.0 **** -0.24
6422 H 99.98425504356082 153.9242258277272 68.24020843128221 H 0.0 **** 0.06
6423 H 101.25699769950624 152.77736299816723 68.7236503605418 H 0.0 **** 0.06
6424 H 101.03451813174884 153.1873117377611 67.00595505320862 H 0.0 **** 0.06
6425 H 99.81976109469234 152.19571649170766 67.8481809789941 H 0.0 **** 0.06
6426 C 95.55081183612332 133.0084787248532 171.83591199634773 C 0.0 **** -0.24
6427 H 95.83272870989053 134.06103056446403 171.8496178458313 H 0.0 **** 0.06
6428 H 95.31044111280643 132.68333314422517 172.84922768480413 H 0.0 **** 0.06
6429 H 96.38079387506635 132.4161130942739 171.45139265209184 H 0.0 **** 0.06
6430 H 94.6797212371528 132.87390206513516 171.1946720613971 H 0.0 **** 0.06
6431 C 51.63169470911585 91.83384736744074 171.3047319828487 C 0.0 **** -0.24
6432 H 51.46457165220703 90.8733805592318 170.81879091705804 H 0.0 **** 0.06
6433 H 50.67891489365704 92.23546869757268 171.65176847774168 H 0.0 **** 0.06
6434 H 52.081749111597546 92.52695089990692 170.59437089313718 H 0.0 **** 0.06
6435 H 52.29989298847717 91.70048074681034 172.1555731958613 H 0.0 **** 0.06
6436 C 96.09952305971507 165.71215713538328 118.0504201586755 C 0.0 **** -0.24
6437 H 96.64097320111341 165.32643358844817 117.18768415761674 H 0.0 **** 0.06
6438 H 96.20772243972539 165.02054508121728 118.88625569129813 H 0.0 **** 0.06
6439 H 95.04352176548184 165.8165616930122 117.79987009232075 H 0.0 **** 0.06
6440 H 96.50454450581168 166.68442254623022 118.32875795788549 H 0.0 **** 0.06
6441 C 57.65918044277464 124.8660875538112 143.4629220065661 C 0.0 **** -0.24
6442 H 57.014077770983334 124.75800632455987 144.33506669821966 H 0.0 **** 0.06
6443 H 57.81143153174841 125.9260557455902 143.2545798567195 H 0.0 **** 0.06
6444 H 57.18962228222779 124.38933329284738 142.60225953959537 H 0.0 **** 0.06
6445 H 58.62041572971006 124.39278523816448 143.66207770755568 H 0.0 **** 0.06
6446 C 3.274767191199004 57.77938038874838 39.402418675859934 C 0.0 **** -0.24
6447 H 4.140299792263619 57.890490407341886 40.0551316520266 H 0.0 **** 0.06
6448 H 2.4316046455762432 57.397574382440965 39.978744518524536 H 0.0 **** 0.06
6449 H 3.512732339095095 57.08021668244632 38.59952322018847 H 0.0 **** 0.06
6450 H 3.0145357142309592 58.7469685015387 38.975364649279015 H 0.0 **** 0.06
6451 C 103.74041043185548 175.81300204397388 87.58804428622263 C 0.0 **** -0.24
6452 H 104.75715203857516 176.072872803185 87.88182319040975 H 0.0 **** 0.06
6453 H 103.55404916278673 176.16605595609053 86.5740813870823 H 0.0 **** 0.06
6454 H 103.03361525939994 176.2811927621711 88.27256994674316 H 0.0 **** 0.06
6455 H 103.61776956225265 174.72962844006818 87.62379707664952 H 0.0 **** 0.06
6456 C 129.34395624295354 179.07497863939724 17.181851714240253 C 0.0 **** -0.24
6457 H 129.53152618033891 180.01277049056856 17.704264685057026 H 0.0 **** 0.06
6458 H 129.7554221981432 178.24819603909668 17.76110526006682 H 0.0 **** 0.06
6459 H 129.81880636418776 179.10543353035834 16.200929067958825 H 0.0 **** 0.06
6460 H 128.26936639502463 178.93581901045889 17.060667405295504 H 0.0 **** 0.06
6461 C 30.771689617522398 25.683400231996274 72.87136776876251 C 0.0 **** -0.24
6462 H 30.875776019694683 24.59970882688384 72.92561096285812 H 0.0 **** 0.06
6463 H 31.649525932358472 26.15476884073024 73.31292568544278 H 0.0 **** 0.06
6464 H 29.88097130811957 25.991196998286455 73.41808285024503 H 0.0 **** 0.06
6465 H 30.6811478386322 25.987371370338906 71.828348542657 H 0.0 **** 0.06
6466 C 113.58669733443531 171.0780932712691 109.74156395421572 C 0.0 **** -0.24
6467 H 113.21515176156782 171.77226589962018 110.49513187069819 H 0.0 **** 0.06
6468 H 114.1473308225095 170.27958021941527 110.22892151762848 H 0.0 **** 0.06
6469 H 114.23791824186895 171.60936623900724 109.04868323922473 H 0.0 **** 0.06
6470 H 112.74547921549322 170.65080652554647 109.1957659358108 H 0.0 **** 0.06
6471 C 4.964465125917911 2.7214697500768352 59.93335909056776 C 0.0 **** -0.24
6472 H 4.550258329896735 2.001410359425421 59.22698978932654 H 0.0 **** 0.06
6473 H 5.9243024732973595 2.357902349420641 60.301644848812515 H 0.0 **** 0.06
6474 H 4.277237330741514 2.8451211938773895 60.76977681998308 H 0.0 **** 0.06
6475 H 5.105637414782166 3.679697558317798 59.43336187435675 H 0.0 **** 0.06
6476 C 49.29248983699779 164.04531661788883 72.75444902955303 C 0.0 **** -0.24
6477 H 48.675392692727996 163.1569659457088 72.61898107554919 H 0.0 **** 0.06
6478 H 48.740433229049984 164.78678515565113 73.3320858314708 H 0.0 **** 0.06
6479 H 49.54877806380574 164.46018218597348 71.77928787153013 H 0.0 **** 0.06
6480 H 50.20577077377965 163.77607017959266 73.28633123748466 H 0.0 **** 0.06
6481 C 163.34569115461397 63.55233263931461 60.98883677843946 C 0.0 **** -0.24
6482 H 163.5568273622543 64.41167196688298 61.62575890886383 H 0.0 **** 0.06
6483 H 163.10193919026955 62.691183807515245 61.61077489844081 H 0.0 **** 0.06
6484 H 164.22141126816064 63.32699109928143 60.38104009281017 H 0.0 **** 0.06
6485 H 162.50089291799344 63.781908640380664 60.33827379155039 H 0.0 **** 0.06
6486 C 94.53141863337197 99.70850217144515 21.388398809051495 C 0.0 **** -0.24
6487 H 95.4094517375749 99.07340507335614 21.27135221839299 H 0.0 **** 0.06
6488 H 94.8333953868738 100.67263266872557 21.800618230062952 H 0.0 **** 0.06
6489 H 93.82296215210408 99.22979931718451 22.06370565048468 H 0.0 **** 0.06
6490 H 94.06154949188732 99.86115289053278 20.41641057387966 H 0.0 **** 0.06
6491 C 58.884953610597876 41.03461743304746 40.77530545727595 C 0.0 **** -0.24
6492 H 58.77756902679697 42.000984003493954 40.28292190823517 H 0.0 **** 0.06
6493 H 58.318081190840246 40.28222072204511 40.225059817180664 H 0.0 **** 0.06
6494 H 58.50506851827696 41.101610443745244 41.79487527923135 H 0.0 **** 0.06
6495 H 59.937836782145624 40.753187296901984 40.79657683799593 H 0.0 **** 0.06
6496 C 55.131603800133064 170.45905021303676 36.50900611399629 C 0.0 **** -0.24
6497 H 55.770687069735004 170.6282756658822 35.64334068046966 H 0.0 **** 0.06
6498 H 55.219404025598124 169.42074528485603 36.82882693725196 H 0.0 **** 0.06
6499 H 54.09605465127959 170.6705616085037 36.24312598040183 H 0.0 **** 0.06
6500 H 55.43904813848701 171.11709379530544 37.321262210392035 H 0.0 **** 0.06
6501 C 91.9091361180027 3.686032863686023 130.19745667736987 C 0.0 **** -0.24
6502 H 92.00000631952675 2.6332998568572634 130.46377823011107 H 0.0 **** 0.06
6503 H 92.45521288751765 4.292482508499177 130.9203296702333 H 0.0 **** 0.06
6504 H 90.85715314908897 3.9724613209384927 130.2050033078911 H 0.0 **** 0.06
6505 H 92.32186001767984 3.8457021350822345 129.20150283247557 H 0.0 **** 0.06
6506 C 173.2728678827409 163.84626508144578 102.79617840970684 C 0.0 **** -0.24
6507 H 173.90632865634373 163.91322338779324 101.91127931147713 H 0.0 **** 0.06
6508 H 172.4230544465229 164.5209894850565 102.68483879958404 H 0.0 **** 0.06
6509 H 173.8482310901134 164.12782722217807 103.67717912690279 H 0.0 **** 0.06
6510 H 172.9130052884673 162.82363700871875 102.90782558722657 H 0.0 **** 0.06
6511 C 75.01446590245894 127.75054682539788 160.98067879422325 C 0.0 **** -0.24
6512 H 74.92303482042757 127.53960258470694 162.04676381884354 H 0.0 **** 0.06
6513 H 76.0596160523088 127.66856363653106 160.6830829736823 H 0.0 **** 0.06
6514 H 74.6558602985204 128.7593510084689 160.77826712629377 H 0.0 **** 0.06
6515 H 74.41855928913111 127.03265713650147 160.41711507528254 H 0.0 **** 0.06
6516 C 161.33481418135676 106.68990721973846 112.49711643737606 C 0.0 **** -0.24
6517 H 160.72209998883991 106.92241043319505 113.36764496495562 H 0.0 **** 0.06
6518 H 160.69523424198357 106.59898389058459 111.61771102666609 H 0.0 **** 0.06
6519 H 161.86036775277887 105.7503729458288 112.66280322761259 H 0.0 **** 0.06
6520 H 162.05928555258083 107.48887491586164 112.33862599091742 H 0.0 **** 0.06
6521 C 9.621579213808047 118.04244074909975 126.26526095570163 C 0.0 **** -0.24
6522 H 10.596725860161655 118.20044783032141 125.80569037525736 H 0.0 **** 0.06
6523 H 9.650865086241367 118.37901341431332 127.30166027348001 H 0.0 **** 0.06
6524 H 9.373814170304172 116.98132013332805 126.23494776211665 H 0.0 **** 0.06
6525 H 8.866801386639565 118.60804029402787 125.71998770284078 H 0.0 **** 0.06
6526 C 184.90624838480872 113.44003676273427 36.4492167065867 C 0.0 **** -0.24
6527 H 184.59982100404528 112.62082787732864 35.79789078709541 H 0.0 **** 0.06
6528 H 185.2594167659797 113.03580624060056 37.39829845339449 H 0.0 **** 0.06
6529 H 184.05602802044268 114.09825466402741 36.62788088397269 H 0.0 **** 0.06
6530 H 185.70881219176732 114.0021515873269 35.97156764490302 H 0.0 **** 0.06
6531 C 13.42140261869966 63.8772587732918 128.75329755729672 C 0.0 **** -0.24
6532 H 12.885476499387579 64.64806023927426 129.30739832859587 H 0.0 **** 0.06
6533 H 13.709330085468935 64.26682634751455 127.77604718953091 H 0.0 **** 0.06
6534 H 12.774769450250574 63.00932223308121 128.62251880536894 H 0.0 **** 0.06
6535 H 14.31343745720838 63.586864457303435 129.3069069075645 H 0.0 **** 0.06
6536 C 179.33024322401306 44.646088649199385 15.106949760286938 C 0.0 **** -0.24
6537 H 179.15749237120554 43.594102422141106 15.339639569763335 H 0.0 **** 0.06
6538 H 180.39781785988612 44.81659443354795 14.969016695245955 H 0.0 **** 0.06
6539 H 178.9651924223285 45.26365259094422 15.927746970034235 H 0.0 **** 0.06
6540 H 178.79908271517624 44.906573843700414 14.191944668126325 H 0.0 **** 0.06
6541 C 3.504069778468704 107.31745547112114 87.68757587435029 C 0.0 **** -0.24
6542 H 3.7089026280789597 106.38340589684752 87.16382567148746 H 0.0 **** 0.06
6543 H 2.482253271347389 107.63376869965101 87.47848181645143 H 0.0 **** 0.06
6544 H 4.199477268971037 108.08493621803198 87.3460848547294 H 0.0 **** 0.06
6545 H 3.6260366118081038 107.1664798015759 88.7600859200699 H 0.0 **** 0.06
6546 C 68.87644103390659 117.18500408190052 15.892860625723984 C 0.0 **** -0.24
6547 H 69.95338218503036 117.06154214945023 15.77715721333604 H 0.0 **** 0.06
6548 H 68.53948799966376 116.62891759853902 16.767698233034707 H 0.0 **** 0.06
6549 H 68.3705301489967 116.80720428765578 15.003953502723988 H 0.0 **** 0.06
6550 H 68.64435804505385 118.2425836103214 16.021648866147473 H 0.0 **** 0.06
6551 C 14.221793882984365 110.1149316759715 71.47850417944346 C 0.0 **** -0.24
6552 H 14.0581489973479 109.2747673029494 70.80466257585022 H 0.0 **** 0.06
6553 H 14.173236492623715 111.0479048498258 70.91593451346614 H 0.0 **** 0.06
6554 H 15.203577015482864 110.0216933052895 71.94254280475309 H 0.0 **** 0.06
6555 H 13.453315786920761 110.1170852573619 72.2517778382437 H 0.0 **** 0.06
6556 C 15.155056746073058 65.9071192335176 35.985577638734156 C 0.0 **** -0.24
6557 H 15.714378777836373 66.73427587816916 35.54663099870663 H 0.0 **** 0.06
6558 H 15.138844457533992 65.0691598857735 35.28792394055574 H 0.0 **** 0.06
6559 H 14.134358499599898 66.22840702913868 36.193049576808505 H 0.0 **** 0.06
6560 H 15.635262060475384 65.59769131957579 36.91451930230289 H 0.0 **** 0.06
6561 C 18.639587838305133 144.8402666259416 39.52315707864081 C 0.0 **** -0.24
6562 H 18.435654691874596 144.71147699209928 38.45971225654132 H 0.0 **** 0.06
6563 H 18.95200753725092 145.86690301188838 39.71086960993527 H 0.0 **** 0.06
6564 H 19.434445729692335 144.1579132476574 39.82400946487245 H 0.0 **** 0.06
6565 H 17.737768471628698 144.62275244570316 40.094782616758096 H 0.0 **** 0.06
6566 C 88.46164977359025 41.06851473916018 164.83538657403264 C 0.0 **** -0.24
6567 H 88.16043497626019 40.77313661700653 163.82975602410687 H 0.0 **** 0.06
6568 H 88.9446374300398 42.04472046278504 164.7975624837837 H 0.0 **** 0.06
6569 H 89.15979537053572 40.33365194639525 165.2356661681078 H 0.0 **** 0.06
6570 H 87.58188151152542 41.1222825443506 165.47685691470915 H 0.0 **** 0.06
6571 C 78.45758567312481 117.38811045178933 179.85539894464122 C 0.0 **** -0.24
6572 H 78.22932783711649 118.43867474563542 179.67300538237618 H 0.0 **** 0.06
6573 H 79.32241267827666 117.09580371733436 179.25939777069513 H 0.0 **** 0.06
6574 H 77.59978123916795 116.77663044110686 179.5779785449758 H 0.0 **** 0.06
6575 H 78.67992894334344 117.24509422976952 180.91248890039412 H 0.0 **** 0.06
6576 C 33.66167198231946 115.10472430918969 105.03202553773185 C 0.0 **** -0.24
6577 H 33.098259387873696 115.27140605666278 105.9496838549767 H 0.0 **** 0.06
6578 H 33.59094624995548 114.05455906967626 104.74936461908474 H 0.0 **** 0.06
6579 H 34.70654761488761 115.36810531962902 105.19547801654925 H 0.0 **** 0.06
6580 H 33.2504661981916 115.7252167834169 104.23594812360575 H 0.0 **** 0.06
6581 C 5.505576707673924 184.4105539244102 1.9723896889824744 C 0.0 **** -0.24
6582 H 5.426635515754526 183.68055378549133 1.1667151566114455 H 0.0 **** 0.06
6583 H 4.949165894638611 184.05547083590733 2.840156008496166 H 0.0 **** 0.06
6584 H 5.095034394381003 185.36372158182232 1.640231937622417 H 0.0 **** 0.06
6585 H 6.554375054269315 184.54188991860713 2.2419750976166313 H 0.0 **** 0.06
6586 C 21.925784478356945 131.16314286241112 124.20407314544919 C 0.0 **** -0.24
6587 H 21.741636595043985 131.5197873375559 123.19094253948798 H 0.0 **** 0.06
6588 H 21.578206918393505 131.90903190320626 124.92031807066535 H 0.0 **** 0.06
6589 H 22.993915396639068 130.996065869912 124.34266600723744 H 0.0 **** 0.06
6590 H 21.388358120364984 130.2277517251411 124.36334247452218 H 0.0 **** 0.06
6591 C 168.44531330230063 2.4637259649865086 9.49852502621144 C 0.0 **** -0.24
6592 H 168.88743340965144 2.1761094421687517 8.544184452365272 H 0.0 **** 0.06
6593 H 169.02234566709868 3.279743135932108 9.934511276556663 H 0.0 **** 0.06
6594 H 168.45603906587817 1.6099486517236983 10.175622217149936 H 0.0 **** 0.06
6595 H 167.41759852216936 2.789610823282885 9.340029793936822 H 0.0 **** 0.06
6596 C 157.20049618960013 27.275501229641065 4.5068214759043315 C 0.0 **** -0.24
6597 H 156.55272451316318 26.625275534742002 3.919142349275859 H 0.0 **** 0.06
6598 H 157.95988273863708 27.713292710931228 3.858912491861531 H 0.0 **** 0.06
6599 H 157.68337869908765 26.69170909424969 5.291337646121036 H 0.0 **** 0.06
6600 H 156.60502922738112 28.06906556357245 4.958880235783084 H 0.0 **** 0.06
6601 C 165.6639931225662 135.82700101474336 105.29389491775062 C 0.0 **** -0.24
6602 H 165.109898476146 136.57466365954002 105.86106160015454 H 0.0 **** 0.06
6603 H 164.96896262568154 135.23571680850267 104.69741359509733 H 0.0 **** 0.06
6604 H 166.20046535684068 135.17335576696343 105.9822406261102 H 0.0 **** 0.06
6605 H 166.37559478234235 136.32430999264176 104.63580891378534 H 0.0 **** 0.06
6606 C 18.646321430530435 146.84434940535772 95.06241036783176 C 0.0 **** -0.24
6607 H 18.851841267214354 146.2301927921688 94.1859101659028 H 0.0 **** 0.06
6608 H 19.27952975226185 147.7312559954653 95.0421549591074 H 0.0 **** 0.06
6609 H 18.855393679167662 146.269161099954 95.96452875143238 H 0.0 **** 0.06
6610 H 17.598493559289267 147.14468580629512 95.05781000545473 H 0.0 **** 0.06
6611 C 183.99898591931196 146.67479139821836 16.45099638526051 C 0.0 **** -0.24
6612 H 182.94684450862934 146.40895118151693 16.5555229684812 H 0.0 **** 0.06
6613 H 184.1091739466805 147.7569681319784 16.525826173286816 H 0.0 **** 0.06
6614 H 184.36392804450136 146.33857391774035 15.48109773834014 H 0.0 **** 0.06
6615 H 184.5750417018457 146.19551854400675 17.24214783350709 H 0.0 **** 0.06
6616 C 128.0883534394465 53.250926395042356 50.67810027670484 C 0.0 **** -0.24
6617 H 127.37300376984545 53.8825603144153 50.151497197779406 H 0.0 **** 0.06
6618 H 128.99069754646746 53.14406579740485 50.0760784434341 H 0.0 **** 0.06
6619 H 127.6474730795618 52.26916361748104 50.85094911323661 H 0.0 **** 0.06
6620 H 128.34179580809575 53.709558454554156 51.63420067826809 H 0.0 **** 0.06
6621 C 153.1814944133538 17.84398640694797 0.5919868555973196 C 0.0 **** -0.24
6622 H 153.4357721142602 18.317385713520174 1.5411303371248835 H 0.0 **** 0.06
6623 H 153.58266176405755 18.43816807722699 -0.22869715668016966 H 0.0 **** 0.06
6624 H 152.09723931970507 17.779537292000903 0.49879578716262785 H 0.0 **** 0.06
6625 H 153.60924564601055 16.842378200408568 0.5599677228583246 H 0.0 **** 0.06
6626 C 177.09834046345458 70.47640684338694 4.646425933500609 C 0.0 **** -0.24
6627 H 178.1101299647837 70.41491286910019 5.047748585056752 H 0.0 **** 0.06
6628 H 177.1336203973666 70.87519637073558 3.6320139697492095 H 0.0 **** 0.06
6629 H 176.49749228414146 71.13338612540844 5.274861322795061 H 0.0 **** 0.06
6630 H 176.6530526984151 69.48195220314528 4.630769550776165 H 0.0 **** 0.06
6631 C 123.94382896508243 21.450103030152135 36.27768432236543 C 0.0 **** -0.24
6632 H 123.60483205042367 20.468270017582498 35.9497950894099 H 0.0 **** 0.06
6633 H 124.56227180138758 21.899913195177007 35.50002265243536 H 0.0 **** 0.06
6634 H 124.52717268089965 21.34590185152659 37.192399349363626 H 0.0 **** 0.06
6635 H 123.08031431195259 22.086959650631556 36.468247798841944 H 0.0 **** 0.06
6636 C 129.4952920195617 7.412957976447302 127.87244260680797 C 0.0 **** -0.24
6637 H 129.93033353303792 7.690792229433129 126.9131901186837 H 0.0 **** 0.06
6638 H 128.87615178376467 8.231547593203516 128.24109664694703 H 0.0 **** 0.06
6639 H 130.29130651218134 7.208044204074213 128.5874682054449 H 0.0 **** 0.06
6640 H 128.88153836703805 6.52070479164945 127.74775067537843 H 0.0 **** 0.06
6641 C 174.8510915952476 152.97213760012392 130.8849452152599 C 0.0 **** -0.24
6642 H 175.81934550336223 152.66811662205237 130.48583494792098 H 0.0 **** 0.06
6643 H 174.44942744216524 153.78695127323059 130.2824612296331 H 0.0 **** 0.06
6644 H 174.9715218562859 153.3054043289789 131.91580515063146 H 0.0 **** 0.06
6645 H 174.16517592310834 152.1253192225874 130.85526865368251 H 0.0 **** 0.06
6646 C 39.19385950903791 54.80439045137203 43.905205279683315 C 0.0 **** -0.24
6647 H 38.2752228022955 54.36954436461798 43.51227929794811 H 0.0 **** 0.06
6648 H 39.63907344000722 55.45485614869661 43.15261688898309 H 0.0 **** 0.06
6649 H 39.894630285293715 54.006832397266436 44.15612535271816 H 0.0 **** 0.06
6650 H 38.967506795659574 55.38349992776065 44.79988064016834 H 0.0 **** 0.06
6651 C 44.0601164904794 128.43184422246202 170.141575661785 C 0.0 **** -0.24
6652 H 43.66236985453497 129.14557874843683 170.8628432937561 H 0.0 **** 0.06
6653 H 43.60635410854263 128.61027313232785 169.16591269411873 H 0.0 **** 0.06
6654 H 43.82987307558204 127.41798415476494 170.4695102668926 H 0.0 **** 0.06
6655 H 45.14111971303723 128.55308279862612 170.06755796396317 H 0.0 **** 0.06
6656 C 136.9749572061317 117.8880901047541 168.07296456871143 C 0.0 **** -0.24
6657 H 136.58922947879142 117.04828635405676 167.4949557927466 H 0.0 **** 0.06
6658 H 136.154598141794 118.36811548143584 168.60698050339215 H 0.0 **** 0.06
6659 H 137.44159121635482 118.60731384386469 167.40058948550742 H 0.0 **** 0.06
6660 H 137.71400168092657 117.52662996726559 168.78845266284642 H 0.0 **** 0.06
6661 C 23.609568675205594 100.55884748738497 129.67009040962415 C 0.0 **** -0.24
6662 H 24.093281528108406 101.28391478230044 130.32425601971016 H 0.0 **** 0.06
6663 H 22.78149028591247 101.03824867869282 129.14784999904754 H 0.0 **** 0.06
6664 H 23.231149288809604 99.72750593827034 130.26574247700677 H 0.0 **** 0.06
6665 H 24.331428083586673 100.18610119585647 128.94351243320943 H 0.0 **** 0.06
6666 C 80.01500846634616 111.85133970353178 124.77009112600787 C 0.0 **** -0.24
6667 H 80.28829134787512 111.4485869917732 123.79557276013519 H 0.0 **** 0.06
6668 H 80.73241107806805 111.51215979116336 125.51720814348566 H 0.0 **** 0.06
6669 H 79.01700543186179 111.50471122740657 125.03921195001719 H 0.0 **** 0.06
6670 H 80.02222357452573 112.94063710021777 124.72680721785237 H 0.0 **** 0.06
6671 C 62.77425794396862 62.757731732713296 30.66609949388298 C 0.0 **** -0.24
6672 H 62.58282393223374 63.33828670995979 29.763614423393648 H 0.0 **** 0.06
6673 H 63.84685820840292 62.72331297961691 30.85503960850609 H 0.0 **** 0.06
6674 H 62.39643664598964 61.7441003353166 30.531805698613653 H 0.0 **** 0.06
6675 H 62.269899517909266 63.225545860316345 31.5117311446008 H 0.0 **** 0.06
6676 C 43.2949818871989 75.42283582965354 43.96890128615466 C 0.0 **** -0.24
6677 H 44.33921764626771 75.26069280238369 44.234930732445605 H 0.0 **** 0.06
6678 H 42.845213683844236 74.47664884153647 43.66833165182625 H 0.0 **** 0.06
6679 H 43.237297662611184 76.132093135496 43.14348626495817 H 0.0 **** 0.06
6680 H 42.759149969018495 75.82331914063212 44.82918067303393 H 0.0 **** 0.06
6681 C 1.8971133405581782 47.58865257493193 11.56280065102041 C 0.0 **** -0.24
6682 H 1.1035017994267093 48.322593783264324 11.701127712313124 H 0.0 **** 0.06
6683 H 2.3133758252026837 47.31522888640225 12.53293487919288 H 0.0 **** 0.06
6684 H 2.681361975156733 48.016650652129385 10.937590995535338 H 0.0 **** 0.06
6685 H 1.4907936896034357 46.701348921095644 11.077761560233782 H 0.0 **** 0.06
6686 C 66.6408516762266 44.84349612282793 81.98591131928532 C 0.0 **** -0.24
6687 H 65.63293344177272 45.21353477412379 81.79908631222476 H 0.0 **** 0.06
6688 H 66.82534669662178 44.82074897054211 83.06022437078406 H 0.0 **** 0.06
6689 H 67.36412643889393 45.502743507466576 81.50663911032616 H 0.0 **** 0.06
6690 H 66.74016470877781 43.837247045160964 81.57816250904042 H 0.0 **** 0.06
6691 C 147.41951584094807 182.00225690155608 158.9100476130758 C 0.0 **** -0.24
6692 H 146.82814685232893 182.17428292040324 158.01123222126415 H 0.0 **** 0.06
6693 H 148.21097308542898 181.2845800012343 158.69357205863713 H 0.0 **** 0.06
6694 H 146.7764348514322 181.6074525493408 159.6978393212693 H 0.0 **** 0.06
6695 H 147.86123562450086 182.94267525748643 159.2402631833114 H 0.0 **** 0.06
6696 C 169.88152287374464 4.995044109080993 60.96670151750493 C 0.0 **** -0.24
6697 H 170.88812595101174 5.1627691736794645 61.35129993183659 H 0.0 **** 0.06
6698 H 169.86836420371895 4.080182444999508 60.373982058485694 H 0.0 **** 0.06
6699 H 169.5859955515447 5.837965029556301 60.342538661909714 H 0.0 **** 0.06
6700 H 169.18590250789973 4.897423765327943 61.80051981448317 H 0.0 **** 0.06
6701 C 164.93223247513896 168.00139226554384 118.32544618123113 C 0.0 **** -0.24
6702 H 164.86933146159922 169.06113549552236 118.5713548979157 H 0.0 **** 0.06
6703 H 163.94846574643609 167.63852754259176 118.0277288999247 H 0.0 **** 0.06
6704 H 165.27548832081672 167.44588078240054 119.19826963594274 H 0.0 **** 0.06
6705 H 165.63602482481895 167.86013967198207 117.50534899798102 H 0.0 **** 0.06
6706 C 130.36112182815128 5.415133478323241 5.997902078980445 C 0.0 **** -0.24
6707 H 129.9539884232114 4.980573553833835 5.084312754344609 H 0.0 **** 0.06
6708 H 131.44255984075886 5.51345322280406 5.902097996783368 H 0.0 **** 0.06
6709 H 130.1275635032771 4.766453156670877 6.842760491732008 H 0.0 **** 0.06
6710 H 129.91907102257375 6.397692857596667 6.160507411629794 H 0.0 **** 0.06
6711 C 5.871494953943198 99.75329358176049 175.8915768590727 C 0.0 **** -0.24
6712 H 5.648048302183007 98.72206027003483 175.61460598913308 H 0.0 **** 0.06
6713 H 5.454683378695421 99.96282409989772 176.87664103620628 H 0.0 **** 0.06
6714 H 5.430417400804352 100.42878585271558 175.1586872740287 H 0.0 **** 0.06
6715 H 6.950964062110799 99.89697975438338 175.91433756851148 H 0.0 **** 0.06
6716 C 135.31355703364704 79.54087594784187 91.84076557879087 C 0.0 **** -0.24
6717 H 135.1811968317416 78.557852859744 91.38860990505378 H 0.0 **** 0.06
6718 H 136.32275497319205 79.61991243586408 92.2472150353525 H 0.0 **** 0.06
6719 H 134.587179292514 79.67223037326221 92.64182782212697 H 0.0 **** 0.06
6720 H 135.1651721410795 80.31141522224499 91.08484925395084 H 0.0 **** 0.06
6721 C 143.89062092747406 144.6704304191562 9.364165190266704 C 0.0 **** -0.24
6722 H 144.39165653400283 143.92663192326694 8.744435017073243 H 0.0 **** 0.06
6723 H 144.0939351042342 145.6668592960237 8.971181455903462 H 0.0 **** 0.06
6724 H 144.2624046649967 144.60025436667243 10.386180124857844 H 0.0 **** 0.06
6725 H 142.81647385245398 144.48713680473432 9.354272761655409 H 0.0 **** 0.06
6726 C 120.96357366806247 166.0680569979934 25.685305726717587 C 0.0 **** -0.24
6727 H 120.3240298774141 166.9055664857623 25.406459957126117 H 0.0 **** 0.06
6728 H 120.4482695323211 165.44522769365952 26.4174018277387 H 0.0 **** 0.06
6729 H 121.89006476312188 166.44648968417945 26.11716139228548 H 0.0 **** 0.06
6730 H 121.19104200798294 165.47485600926672 24.79974934904459 H 0.0 **** 0.06
6731 C 161.5303464008603 21.89834391896501 49.1014604684284 C 0.0 **** -0.24
6732 H 161.64146310492598 20.814347395699365 49.13159323834995 H 0.0 **** 0.06
6733 H 161.2089161332297 22.203254304030082 48.10597536909489 H 0.0 **** 0.06
6734 H 162.48568230619492 22.366840595111185 49.33576477856147 H 0.0 **** 0.06
6735 H 160.78528347094382 22.207476945948287 49.835487987892066 H 0.0 **** 0.06
6736 C 76.90408447093205 58.28659359215112 169.62198058145907 C 0.0 **** -0.24
6737 H 75.961346777845 58.5083428538552 169.1228450843066 H 0.0 **** 0.06
6738 H 76.7091176885807 57.708473537023224 170.52552002809182 H 0.0 **** 0.06
6739 H 77.4022756430474 59.21963198225609 169.8882104063947 H 0.0 **** 0.06
6740 H 77.54404125433359 57.71185115793162 168.9523942794729 H 0.0 **** 0.06
6741 C 21.87971083076907 162.84820051524915 48.28834175864503 C 0.0 **** -0.24
6742 H 22.53284212001975 162.68050455056994 47.43167323608229 H 0.0 **** 0.06
6743 H 21.499886510305302 163.870227107622 48.26144327280406 H 0.0 **** 0.06
6744 H 22.441438963230382 162.69273136766816 49.209702288099265 H 0.0 **** 0.06
6745 H 21.04409381310174 162.14914406703832 48.24975868997953 H 0.0 **** 0.06
6746 C 43.75045328351834 16.785932205825922 12.073916994082083 C 0.0 **** -0.24
6747 H 44.28483620295518 15.853682771697073 12.256082426274418 H 0.0 **** 0.06
6748 H 44.06888971906696 17.206696354443544 11.12013760035552 H 0.0 **** 0.06
6749 H 43.96908478249503 17.492600639533336 12.873972826570593 H 0.0 **** 0.06
6750 H 42.678266509555044 16.589687868439285 12.044898626220515 H 0.0 **** 0.06
6751 C 82.67135155100038 12.277565921503822 79.21578370481066 C 0.0 **** -0.24
6752 H 82.65230933182421 11.448744170943819 78.50751307574322 H 0.0 **** 0.06
6753 H 83.52885193268574 12.16632378088947 79.88005372927621 H 0.0 **** 0.06
6754 H 81.75334483022912 12.274811044380435 79.80318767714645 H 0.0 **** 0.06
6755 H 82.7528993633276 13.218166669426935 78.67209121558923 H 0.0 **** 0.06
6756 C 87.59496374964294 4.46699914203397 123.13022571865547 C 0.0 **** -0.24
6757 H 86.91655389512698 3.650408119750857 122.88322463756141 H 0.0 **** 0.06
6758 H 88.47175253375377 4.0684463476719515 123.64037026206042 H 0.0 **** 0.06
6759 H 87.08600260649638 5.176770870511071 123.78239211792929 H 0.0 **** 0.06
6760 H 87.90445319242957 4.971480520212715 122.21502782671065 H 0.0 **** 0.06
6761 C 128.9433626603485 10.175071201458366 8.352862647841562 C 0.0 **** -0.24
6762 H 127.92758760809778 10.177107537666956 7.958691064829793 H 0.0 **** 0.06
6763 H 129.6474387774992 9.982829734573642 7.542229287430132 H 0.0 **** 0.06
6764 H 129.0378590048008 9.395469983168255 9.108650806078572 H 0.0 **** 0.06
6765 H 129.1613831634479 11.144728995418262 8.801323577519156 H 0.0 **** 0.06
6766 C 37.81243419469297 44.75343759574133 164.0310369372136 C 0.0 **** -0.24
6767 H 37.6638335671237 45.55837541715812 163.30985154487684 H 0.0 **** 0.06
6768 H 37.14930024265544 44.903183923043684 164.88313597243734 H 0.0 **** 0.06
6769 H 38.848197659418645 44.75615920444784 164.37078096527205 H 0.0 **** 0.06
6770 H 37.58756773989535 43.79739339144135 163.55881568905735 H 0.0 **** 0.06
6771 C 126.98530887794426 3.4026382650990286 185.4392910636707 C 0.0 **** -0.24
6772 H 127.56932219781548 4.262943359994807 185.1108736879611 H 0.0 **** 0.06
6773 H 127.55028926652894 2.842978145544862 186.18460916344543 H 0.0 **** 0.06
6774 H 126.77372366296173 2.7601652898309794 184.5842188149315 H 0.0 **** 0.06
6775 H 126.04755531082377 3.746558178079198 185.87623581524275 H 0.0 **** 0.06
6776 C 129.49348110489495 155.74414180606746 129.93033334061658 C 0.0 **** -0.24
6777 H 130.2081803963261 155.78501769802392 129.10788001846805 H 0.0 **** 0.06
6778 H 128.77453103151396 156.5574117624442 129.8269643171161 H 0.0 **** 0.06
6779 H 130.0245060161464 155.84625178684826 130.87709068810426 H 0.0 **** 0.06
6780 H 128.96907891268137 154.78981285088648 129.90810940776288 H 0.0 **** 0.06
6781 C 78.59385277815949 155.7086683523554 5.571619896491697 C 0.0 **** -0.24
6782 H 78.72695908640742 155.32978678117047 4.558105792856011 H 0.0 **** 0.06
6783 H 79.5379784736495 155.63724952001098 6.11253801280624 H 0.0 **** 0.06
6784 H 77.83521869247681 155.1157955214241 6.083654583622362 H 0.0 **** 0.06
6785 H 78.27526575821594 156.75026365942097 5.530596851409989 H 0.0 **** 0.06
6786 C 55.230003095792966 150.44030914404598 112.11258963884755 C 0.0 **** -0.24
6787 H 55.43805413254299 151.41588337835327 112.5521212595073 H 0.0 **** 0.06
6788 H 56.13081160134317 150.05918314221543 111.63078533342424 H 0.0 **** 0.06
6789 H 54.434360831003005 150.53693845592926 111.37370160155622 H 0.0 **** 0.06
6790 H 54.91636421601484 149.74922074548164 112.89510024354321 H 0.0 **** 0.06
6791 C 168.52519740616654 166.82823325370128 138.64693059035403 C 0.0 **** -0.24
6792 H 168.7021125866697 167.87776935919294 138.88456344765154 H 0.0 **** 0.06
6793 H 168.99088596206875 166.5898952063128 137.68980387547998 H 0.0 **** 0.06
6794 H 167.4522144787104 166.6461552896589 138.58502243294998 H 0.0 **** 0.06
6795 H 168.9563349480079 166.20233871437654 139.4281877861746 H 0.0 **** 0.06
6796 C 106.8087185505957 171.6597514320404 88.59681917679065 C 0.0 **** -0.24
6797 H 106.32355548962465 170.9482798083773 89.26451018206625 H 0.0 **** 0.06
6798 H 107.25654195948329 171.12414571388322 87.75964650840898 H 0.0 **** 0.06
6799 H 107.58435659085012 172.19708706524054 89.14181861981179 H 0.0 **** 0.06
6800 H 106.07022772936591 172.36747827287024 88.22268104378564 H 0.0 **** 0.06
6801 C 146.02540266960526 125.05166355663145 100.43451914881189 C 0.0 **** -0.24
6802 H 146.4196781423896 125.29309435835141 99.44691983365976 H 0.0 **** 0.06
6803 H 146.42632952817002 124.09199555302526 100.76037699339565 H 0.0 **** 0.06
6804 H 144.93764388586683 124.99360597322651 100.38629541261929 H 0.0 **** 0.06
6805 H 146.31653976564576 125.82747998305267 101.14188496664804 H 0.0 **** 0.06
6806 C 85.57593093314956 171.5686650811487 102.9520042921104 C 0.0 **** -0.24
6807 H 85.3786056032448 170.5776366271733 103.36160861252903 H 0.0 **** 0.06
6808 H 86.27824360719099 171.48422559602048 102.12190413098178 H 0.0 **** 0.06
6809 H 86.00381347636876 172.2031546248073 103.7278566615674 H 0.0 **** 0.06
6810 H 84.64373319828945 172.00674273670901 102.59628150992889 H 0.0 **** 0.06
6811 C 43.430480603904144 125.37043704873435 172.52043623020108 C 0.0 **** -0.24
6812 H 43.10639221642144 124.74448800964586 171.68960841619682 H 0.0 **** 0.06
6813 H 43.6717659666928 124.73992793823516 173.37708612120505 H 0.0 **** 0.06
6814 H 42.63035133173935 126.05975177233074 172.79010403027002 H 0.0 **** 0.06
6815 H 44.314185131266 125.93594413810018 172.2257985041516 H 0.0 **** 0.06
6816 C 111.6886481510719 86.40322646536326 123.12324096950395 C 0.0 **** -0.24
6817 H 110.85111606300472 86.89299914134763 122.62722678383857 H 0.0 **** 0.06
6818 H 111.75454097259905 85.36806769749874 122.7875851399199 H 0.0 **** 0.06
6819 H 111.5354543944091 86.42640188402349 124.20203702474497 H 0.0 **** 0.06
6820 H 112.61348117427451 86.92543713858306 122.87611492951221 H 0.0 **** 0.06
6821 C 167.1955373103284 160.24269257139068 31.056536181480112 C 0.0 **** -0.24
6822 H 166.40051195521218 160.92883620120122 30.762711413740305 H 0.0 **** 0.06
6823 H 166.7656142134675 159.2700110501278 31.295904424194106 H 0.0 **** 0.06
6824 H 167.71000476288316 160.6383466874716 31.932860008679825 H 0.0 **** 0.06
6825 H 167.90567674351297 160.13617556417807 30.236700546895776 H 0.0 **** 0.06
6826 C 173.19169135665032 135.24561912471444 7.389651577991032 C 0.0 **** -0.24
6827 H 172.9703948630011 134.45507020209476 6.672377826932575 H 0.0 **** 0.06
6828 H 173.34134545190363 136.18603482008479 6.857789402904871 H 0.0 **** 0.06
6829 H 174.09732857012224 134.99217136656983 7.941971112799763 H 0.0 **** 0.06
6830 H 172.35901532570006 135.34847836305573 8.084812670804752 H 0.0 **** 0.06
6831 C 113.794604888075 23.50893360668306 44.10321362062291 C 0.0 **** -0.24
6832 H 113.35618760901939 22.825930815429672 43.37582594392782 H 0.0 **** 0.06
6833 H 114.72476251097699 23.915593342544753 43.70456082269504 H 0.0 **** 0.06
6834 H 114.00004283408875 22.97078628360984 45.029083533444805 H 0.0 **** 0.06
6835 H 113.09785888889662 24.322543814308176 44.30358026601476 H 0.0 **** 0.06
6836 C 126.97944872177949 114.2557348132916 151.84589557019603 C 0.0 **** -0.24
6837 H 126.31398480122253 114.82921081219392 151.20072008318647 H 0.0 **** 0.06
6838 H 127.32157882354237 113.36662355896287 151.31590732226337 H 0.0 **** 0.06
6839 H 126.44335246298665 113.95818858926047 152.74731523865927 H 0.0 **** 0.06
6840 H 127.83792516413628 114.86914762151902 152.11983222837608 H 0.0 **** 0.06
6841 C 60.25446593872461 21.58173390138336 140.81709074117254 C 0.0 **** -0.24
6842 H 61.18961532904733 22.11916611505606 140.6600633739024 H 0.0 **** 0.06
6843 H 60.43292623526199 20.72600767565774 141.46883680508216 H 0.0 **** 0.06
6844 H 59.86832530267455 21.23522046066836 139.8592013039896 H 0.0 **** 0.06
6845 H 59.527797665267684 22.246879581469358 141.2825515704049 H 0.0 **** 0.06
6846 C 39.69790155484503 49.640300543992026 32.67512423502228 C 0.0 **** -0.24
6847 H 39.57628329851963 49.64184071011317 31.591885114020442 H 0.0 **** 0.06
6848 H 39.92850649736312 48.629328905520055 33.012616598861655 H 0.0 **** 0.06
6849 H 38.77406971417935 49.979274513348 33.14408131847779 H 0.0 **** 0.06
6850 H 40.51236425354733 50.309935146800456 32.949870214417274 H 0.0 **** 0.06
6851 C 74.62706950136129 7.632078175347544 41.380705306929315 C 0.0 **** -0.24
6852 H 74.33269449475347 8.676058745283484 41.49029681974048 H 0.0 **** 0.06
6853 H 73.75194626110408 7.032616585241982 41.131909296777394 H 0.0 **** 0.06
6854 H 75.05814830858702 7.2764834855202025 42.31648030019733 H 0.0 **** 0.06
6855 H 75.36702443302238 7.54540339051249 40.58489782376057 H 0.0 **** 0.06
6856 C 14.280894109117526 107.98270549470345 31.218401919226295 C 0.0 **** -0.24
6857 H 14.165475615511355 107.53286293774102 30.231854591628093 H 0.0 **** 0.06
6858 H 14.278538641464877 107.20028830443289 31.977110788573782 H 0.0 **** 0.06
6859 H 13.455444106882453 108.67107410832 31.402590232049647 H 0.0 **** 0.06
6860 H 15.223983767313598 108.52825795123238 31.25955763271392 H 0.0 **** 0.06
6861 C 38.38767133448188 54.37940761230442 53.46401113462568 C 0.0 **** -0.24
6862 H 38.08752861857937 53.48587744451308 52.91571506726723 H 0.0 **** 0.06
6863 H 39.34014288440021 54.73966008580962 53.07490000358118 H 0.0 **** 0.06
6864 H 38.49317771267157 54.138536423718904 54.521041312715795 H 0.0 **** 0.06
6865 H 37.629170087844756 55.15226695596675 53.340939411287025 H 0.0 **** 0.06
6866 C 114.97610952631709 98.35082478419754 82.3364939264427 C 0.0 **** -0.24
6867 H 114.39876787736375 98.86973740128572 83.10213137102267 H 0.0 **** 0.06
6868 H 115.94446685118044 98.83958298204745 82.21928499371921 H 0.0 **** 0.06
6869 H 114.43622646472352 98.38085298198304 81.39047070716356 H 0.0 **** 0.06
6870 H 115.12683318352344 97.31359476008306 82.63639829361375 H 0.0 **** 0.06
6871 C 39.14783358298108 44.47919750325475 10.14434630900874 C 0.0 **** -0.24
6872 H 39.66491304398315 44.02715700730758 9.298304602391624 H 0.0 **** 0.06
6873 H 38.22733221823515 44.9500557626163 9.797274076466778 H 0.0 **** 0.06
6874 H 39.7900954730129 45.23008368681529 10.603950436419836 H 0.0 **** 0.06
6875 H 38.90759611919347 43.70798040378618 10.876530385316073 H 0.0 **** 0.06
6876 C 1.7511851508254779 125.86076212312271 158.36218474899977 C 0.0 **** -0.24
6877 H 1.5906583658084514 124.80081419105245 158.55700998838086 H 0.0 **** 0.06
6878 H 2.099596282073634 126.34816435941069 159.27239301654382 H 0.0 **** 0.06
6879 H 0.8157321379866858 126.31673455605129 158.0400293029563 H 0.0 **** 0.06
6880 H 2.500134335098153 125.97685029249307 157.578379903659 H 0.0 **** 0.06
6881 C 11.557663053553 22.955908910089875 57.64298027532374 C 0.0 **** -0.24
6882 H 11.831269684460999 23.25537698989973 56.63203487342517 H 0.0 **** 0.06
6883 H 11.157059107041349 21.94250394017382 57.62633096546347 H 0.0 **** 0.06
6884 H 10.801331210682072 23.639274499648366 58.03141820135764 H 0.0 **** 0.06
6885 H 12.439156770524626 22.98839755240013 58.28311438022655 H 0.0 **** 0.06
6886 C 133.87836621366387 166.76432607212166 117.14195786002585 C 0.0 **** -0.24
6887 H 134.55966620689742 167.43064343361925 117.67060693479539 H 0.0 **** 0.06
6888 H 133.179343303991 167.35424190435072 116.54908127362012 H 0.0 **** 0.06
6889 H 133.32555242226476 166.1628186826141 117.86480236648566 H 0.0 **** 0.06
6890 H 134.44870627885552 166.1078062820393 116.48551874125752 H 0.0 **** 0.06
6891 C 109.43593889179475 17.535676507301304 61.55722911454768 C 0.0 **** -0.24
6892 H 110.04628332123987 17.082543677579054 60.77604496263183 H 0.0 **** 0.06
6893 H 109.33950677923413 16.840687453715873 62.39104828737362 H 0.0 **** 0.06
6894 H 108.44718140586961 17.76375183646354 61.158357383664594 H 0.0 **** 0.06
6895 H 109.90958974029847 18.455167823395016 61.90140052612776 H 0.0 **** 0.06
6896 C 21.473400909902097 85.21572597508138 88.23008867545735 C 0.0 **** -0.24
6897 H 21.91799629815563 85.60357820382997 87.31344481971888 H 0.0 **** 0.06
6898 H 20.39873138729476 85.10171581830554 88.09323682690649 H 0.0 **** 0.06
6899 H 21.66413243634861 85.91135967179851 89.04725793990349 H 0.0 **** 0.06
6900 H 21.916122111635673 84.24784277514094 88.46619336195664 H 0.0 **** 0.06
6901 C 171.4583869298145 69.19125696233101 121.02886931868075 C 0.0 **** -0.24
6902 H 170.5909978390279 69.14636133044418 120.37094615493258 H 0.0 **** 0.06
6903 H 172.36735885782684 69.23675508347647 120.42921082166121 H 0.0 **** 0.06
6904 H 171.48181930275317 68.30153693744988 121.65892057809539 H 0.0 **** 0.06
6905 H 171.39188991370594 70.07892589455243 121.65770583933183 H 0.0 **** 0.06
6906 C 53.70188439692116 128.79462417664575 141.8462269056336 C 0.0 **** -0.24
6907 H 54.57111023892722 129.41360362757877 142.0700689375313 H 0.0 **** 0.06
6908 H 53.788648746610505 127.84365660641878 142.3731690529762 H 0.0 **** 0.06
6909 H 53.65169293424577 128.6123055560284 140.77274840039837 H 0.0 **** 0.06
6910 H 52.7978876822302 129.3090992822627 142.1705718514018 H 0.0 **** 0.06
6911 C 129.57886343766 3.23144996815644 152.6030945657044 C 0.0 **** -0.24
6912 H 130.00925998054083 2.8020620376533216 153.50843108468092 H 0.0 **** 0.06
6913 H 130.25956959525365 3.9796826041862374 152.19716672746733 H 0.0 **** 0.06
6914 H 128.62393240526092 3.698716489337478 152.84236234331306 H 0.0 **** 0.06
6915 H 129.42277371369448 2.443059623752397 151.86682625593016 H 0.0 **** 0.06
6916 C 145.72162819160752 18.291631309377948 109.0001109175969 C 0.0 **** -0.24
6917 H 145.53334572191778 17.27730397429505 108.64720845142757 H 0.0 **** 0.06
6918 H 145.09988669519802 18.99152171555386 108.44206675510118 H 0.0 **** 0.06
6919 H 146.7722128308238 18.538921419523263 108.84893594809994 H 0.0 **** 0.06
6920 H 145.4818459519384 18.358171762368187 110.0612193961468 H 0.0 **** 0.06
6921 C 184.44175201553253 113.77319625100809 97.23140453788564 C 0.0 **** -0.24
6922 H 184.90352277227652 114.13646443566257 98.14923586514813 H 0.0 **** 0.06
6923 H 185.02656151214777 112.94359308591056 96.83392270478343 H 0.0 **** 0.06
6924 H 184.4090258831756 114.58028481825461 96.4981484719993 H 0.0 **** 0.06
6925 H 183.4268896500134 113.43519620662691 97.44367733555323 H 0.0 **** 0.06
6926 C 33.31905695644042 123.39326441752426 66.99015649223904 C 0.0 **** -0.24
6927 H 33.89454995429152 122.46666611167747 66.99920058730416 H 0.0 **** 0.06
6928 H 33.482559731470445 123.91269092852797 66.04603134127456 H 0.0 **** 0.06
6929 H 33.641117752324945 124.0280378426596 67.81583070949513 H 0.0 **** 0.06
6930 H 32.25919848921997 123.16310157696934 67.09949295759813 H 0.0 **** 0.06
6931 C 175.7540060119714 168.56535238805822 68.53512580213409 C 0.0 **** -0.24
6932 H 176.50994516864833 167.84012365099426 68.83841059437572 H 0.0 **** 0.06
6933 H 176.15851473532965 169.57346557206046 68.632284925562 H 0.0 **** 0.06
6934 H 174.87562768613145 168.46226128328425 69.17193039854287 H 0.0 **** 0.06
6935 H 175.47398917767725 168.38424521549305 67.4976316501239 H 0.0 **** 0.06
6936 C 136.24314416773075 52.81105410188462 50.68879689749606 C 0.0 **** -0.24
6937 H 135.40476769829155 52.141122553129065 50.498213644546524 H 0.0 **** 0.06
6938 H 136.1955882635969 53.16597701702699 51.71876900757546 H 0.0 **** 0.06
6939 H 136.1898980942534 53.66089866147155 50.008602488257836 H 0.0 **** 0.06
6940 H 137.17897914343592 52.27569286910841 50.5308456605362 H 0.0 **** 0.06
6941 C 91.00308058944212 96.42281482688941 106.48974360533133 C 0.0 **** -0.24
6942 H 90.28968434417756 96.10109754045578 105.73172043832984 H 0.0 **** 0.06
6943 H 90.66622033369823 97.36206282418237 106.93037698280808 H 0.0 **** 0.06
6944 H 91.98122873555879 96.56777175400475 106.03006428101635 H 0.0 **** 0.06
6945 H 91.07585816945708 95.66243657449388 107.26713327148671 H 0.0 **** 0.06
6946 C 136.56256979085356 36.854191539327516 131.56443879228397 C 0.0 **** -0.24
6947 H 135.74007363061025 36.14448124953694 131.47606044858475 H 0.0 **** 0.06
6948 H 137.45320514108062 36.43866116563555 131.09429890280416 H 0.0 **** 0.06
6949 H 136.76381513012132 37.046976068282916 132.61812555673316 H 0.0 **** 0.06
6950 H 136.29084161074326 37.78732141799405 131.0695016001099 H 0.0 **** 0.06
6951 C 184.02766102863944 138.60011885640455 33.67053679922276 C 0.0 **** -0.24
6952 H 184.4600662806841 137.7695674252396 34.229778622576816 H 0.0 **** 0.06
6953 H 184.82109522019476 139.2789456327635 33.358942932003146 H 0.0 **** 0.06
6954 H 183.31915924063838 139.1338123089165 34.304312696203226 H 0.0 **** 0.06
6955 H 183.5110800695723 138.21508974063045 32.79112843852653 H 0.0 **** 0.06
6956 C 85.89720706393639 47.04827390609421 20.31188797095274 C 0.0 **** -0.24
6957 H 85.20084888484172 46.4869989571159 20.93562036800688 H 0.0 **** 0.06
6958 H 85.73333539851468 48.116817348818415 20.456364219383545 H 0.0 **** 0.06
6959 H 85.73288400678426 46.793933189031804 19.26473607240655 H 0.0 **** 0.06
6960 H 86.91937926930446 46.795808575798674 20.59117557376777 H 0.0 **** 0.06
6961 C 78.06159431317244 13.042582540906551 81.61642709019044 C 0.0 **** -0.24
6962 H 78.77671494457748 13.81377916092535 81.33133482063484 H 0.0 **** 0.06
6963 H 77.4747688258486 12.751462580120176 80.74450598699067 H 0.0 **** 0.06
6964 H 77.39784966471676 13.429621657497506 82.38945951058285 H 0.0 **** 0.06
6965 H 78.59791968202343 12.174455364505093 81.99994980711365 H 0.0 **** 0.06
6966 C 39.291168063738255 102.86980405400072 88.321625582999 C 0.0 **** -0.24
6967 H 38.209958442968315 102.96452219744197 88.2234187562431 H 0.0 **** 0.06
6968 H 39.67551286775151 103.69579936322185 88.92057816843244 H 0.0 **** 0.06
6969 H 39.748600008122764 102.8931733080048 87.33219783240698 H 0.0 **** 0.06
6970 H 39.53048285009615 101.92500494006771 88.80909395810771 H 0.0 **** 0.06
6971 C 82.30751384104752 76.48200747192993 178.64608409265165 C 0.0 **** -0.24
6972 H 82.79548135898006 75.63478060060248 178.16358154519764 H 0.0 **** 0.06
6973 H 82.77415099938202 77.40874486899327 178.31241072193512 H 0.0 **** 0.06
6974 H 82.4102145079874 76.39159651881351 179.72751453356793 H 0.0 **** 0.06
6975 H 81.24992188499374 76.49162590576043 178.38030574260253 H 0.0 **** 0.06
6976 C 121.41652898660793 173.13484223247346 90.50387445353043 C 0.0 **** -0.24
6977 H 120.69787868541856 173.47818338088805 91.24798597889308 H 0.0 **** 0.06
6978 H 122.35800975333852 173.6683904797648 90.63583128762103 H 0.0 **** 0.06
6979 H 121.02568222535434 173.3277566810522 89.50518222380559 H 0.0 **** 0.06
6980 H 121.5847761517686 172.0651822910392 90.62871780906728 H 0.0 **** 0.06
6981 C 47.12226221304678 155.79354515650746 113.52797142528932 C 0.0 **** -0.24
6982 H 47.01304829584947 155.6750408384857 114.606175218558 H 0.0 **** 0.06
6983 H 47.51650335019886 154.87151489704945 113.09960182613908 H 0.0 **** 0.06
6984 H 47.81067755336423 156.61318199998638 113.32097833669609 H 0.0 **** 0.06
6985 H 46.15099095539995 156.01392351126296 113.08525607223719 H 0.0 **** 0.06
6986 C 179.36165899410173 112.47668819346534 175.1652543044959 C 0.0 **** -0.24
6987 H 179.32491511072544 112.00164496847184 176.14532479742388 H 0.0 **** 0.06
6988 H 179.83231740159226 111.80019043815527 174.45189477910685 H 0.0 **** 0.06
6989 H 179.94159854227425 113.39810831164708 175.2299882594325 H 0.0 **** 0.06
6990 H 178.34875146820033 112.7069069232076 174.83411678498732 H 0.0 **** 0.06
6991 C 118.47655643172249 46.74110418141356 41.492293257223395 C 0.0 **** -0.24
6992 H 117.57526665219319 46.18459085140228 41.751221884626204 H 0.0 **** 0.06
6993 H 118.85473345959855 47.251758152041475 42.37854155694248 H 0.0 **** 0.06
6994 H 118.2406287466344 47.474974839919525 40.72247813908987 H 0.0 **** 0.06
6995 H 119.23351136503544 46.0520819309134 41.118552821258845 H 0.0 **** 0.06
6996 C 75.48577764843098 137.0276764292904 63.57851443144452 C 0.0 **** -0.24
6997 H 74.550125590324 136.81522517747277 64.09644596462074 H 0.0 **** 0.06
6998 H 75.81648580147053 136.1356629582121 63.04659202585971 H 0.0 **** 0.06
6999 H 76.24326535493597 137.32107782815194 64.30445335873071 H 0.0 **** 0.06
7000 H 75.32959395417339 137.83856951663938 62.86741640347235 H 0.0 **** 0.06
7001 C 104.15388309874572 124.16595887347434 57.63645319885768 C 0.0 **** -0.24
7002 H 104.23987064397392 123.89656401344276 56.583989468633035 H 0.0 **** 0.06
7003 H 104.40176930994704 123.30162095863652 58.25420380302012 H 0.0 **** 0.06
7004 H 103.1336424029762 124.48347521337205 57.848791672810876 H 0.0 **** 0.06
7005 H 104.84189678987082 124.98124717897146 57.85948121388026 H 0.0 **** 0.06
7006 C 33.81597958048708 124.3321254500788 140.91835016031888 C 0.0 **** -0.24
7007 H 33.04710744434627 123.69435391003553 141.35165883110034 H 0.0 **** 0.06
7008 H 34.6877705778478 123.72917741272052 140.66181455677918 H 0.0 **** 0.06
7009 H 34.103469287423664 125.09761067364512 141.6397428598586 H 0.0 **** 0.06
7010 H 33.42729474920873 124.81017624903349 140.01842464523895 H 0.0 **** 0.06
7011 C 109.91131944708768 27.139768852368732 139.5952492276062 C 0.0 **** -0.24
7012 H 109.78339303723082 26.739908730879904 140.60156036250794 H 0.0 **** 0.06
7013 H 110.34918987221603 26.373701170195076 138.95436843493843 H 0.0 **** 0.06
7014 H 110.57114785145511 28.006081382465 139.62966454892637 H 0.0 **** 0.06
7015 H 108.94140949416352 27.43665844750447 139.19700106486226 H 0.0 **** 0.06
7016 C 161.02947849770464 142.57819939447143 183.1416030935478 C 0.0 **** -0.24
7017 H 162.05542643645538 142.57701226592076 182.7736101885394 H 0.0 **** 0.06
7018 H 160.37348594841234 142.14104727999324 182.38887262016704 H 0.0 **** 0.06
7019 H 160.7184705111784 143.6033561999359 183.34529390324468 H 0.0 **** 0.06
7020 H 160.9724375514951 141.99285703409464 184.05907080582443 H 0.0 **** 0.06
7021 C 117.31330979167156 170.39080472078052 167.99866587493534 C 0.0 **** -0.24
7022 H 117.46292008218775 170.03668490738218 166.9787951588827 H 0.0 **** 0.06
7023 H 117.69568894767544 171.40789479363465 168.09034113006848 H 0.0 **** 0.06
7024 H 117.84541073576558 169.73838690984155 168.69135625367727 H 0.0 **** 0.06
7025 H 116.24837958366068 170.380455780676 168.23467426197192 H 0.0 **** 0.06
7026 C 54.487386262622294 95.65667887650527 29.557161656089136 C 0.0 **** -0.24
7027 H 55.535231105161415 95.76820179658849 29.27863125407498 H 0.0 **** 0.06
7028 H 53.868754825371525 95.68215760712205 28.659426521695224 H 0.0 **** 0.06
7029 H 54.198819070352215 96.47140849624195 30.220899535953265 H 0.0 **** 0.06
7030 H 54.34804371313646 94.70370080997834 30.06836791773398 H 0.0 **** 0.06
7031 C 145.1190030636744 170.62130471743814 129.74692662236845 C 0.0 **** -0.24
7032 H 145.94650579292676 171.15480145404018 129.280283499152 H 0.0 **** 0.06
7033 H 144.59799122876547 170.0289859026213 128.9940963120667 H 0.0 **** 0.06
7034 H 144.42781809823254 171.33892825093454 130.18825774057535 H 0.0 **** 0.06
7035 H 145.50449986607217 169.96274930856947 130.52452569893057 H 0.0 **** 0.06
7036 C 159.60057197079655 31.69707278488478 72.1487968010457 C 0.0 **** -0.24
7037 H 158.93272179506906 32.40808762509545 72.63588757372588 H 0.0 **** 0.06
7038 H 159.86514571799486 32.068038145634205 71.15841666914264 H 0.0 **** 0.06
7039 H 159.09870387868898 30.734025739826464 72.05440838136735 H 0.0 **** 0.06
7040 H 160.50379103934966 31.57916173200536 72.74597652045236 H 0.0 **** 0.06
7041 C 30.412753627165074 135.50699840664288 22.382863588619102 C 0.0 **** -0.24
7042 H 29.728024410511807 134.94362870519205 21.748605870527598 H 0.0 **** 0.06
7043 H 29.910717980269965 135.77106626955367 23.314127653770015 H 0.0 **** 0.06
7044 H 30.72179786444704 136.4155698820145 21.86589946923749 H 0.0 **** 0.06
7045 H 31.289237836929317 134.89841488920678 22.602845106219434 H 0.0 **** 0.06
7046 C 97.62111243219242 36.642685134644665 110.59066386082229 C 0.0 **** -0.24
7047 H 97.78344256979263 37.41761670657155 109.84122583203605 H 0.0 **** 0.06
7048 H 98.35850530843796 36.74864521611397 111.38668118676726 H 0.0 **** 0.06
7049 H 97.72351649186938 35.661945314362185 110.12746719988927 H 0.0 **** 0.06
7050 H 96.61888020549866 36.74497562000562 111.0074366966809 H 0.0 **** 0.06
7051 C 147.13302157672993 36.44004257632591 4.91497059562451 C 0.0 **** -0.24
7052 H 146.64622826503017 36.211184906136495 5.863292700951135 H 0.0 **** 0.06
7053 H 146.6965719123411 37.34574053216629 4.492784275251253 H 0.0 **** 0.06
7054 H 146.98718903178553 35.61005721356665 4.223584646223102 H 0.0 **** 0.06
7055 H 148.1989177697742 36.59242916209766 5.080783642207528 H 0.0 **** 0.06
7056 C 81.97768720130613 43.898156021421556 137.65451475863114 C 0.0 **** -0.24
7057 H 82.1441784144369 44.92558113219721 137.3314889544343 H 0.0 **** 0.06
7058 H 80.91279218035838 43.67033858491072 137.60206300145745 H 0.0 **** 0.06
7059 H 82.3253467940102 43.77974271655057 138.68123842325087 H 0.0 **** 0.06
7060 H 82.52746594591329 43.219206886602365 137.00343277941352 H 0.0 **** 0.06
7061 C 79.35306321343883 100.62988107504657 57.37689695722017 C 0.0 **** -0.24
7062 H 78.38995590493144 101.13963246246954 57.42661861084565 H 0.0 **** 0.06
7063 H 79.9136062359075 100.82482504726141 58.29095260168367 H 0.0 **** 0.06
7064 H 79.91472821753648 101.00008334926139 56.51933876202651 H 0.0 **** 0.06
7065 H 79.19100560760356 99.55726702113685 57.27088382357766 H 0.0 **** 0.06
7066 C 119.80928788127335 97.85517233172118 24.527913304988715 C 0.0 **** -0.24
7067 H 119.9753371517337 97.69674042853813 23.462939453702745 H 0.0 **** 0.06
7068 H 120.27429018090055 97.04764947277602 25.092226182661847 H 0.0 **** 0.06
7069 H 118.7378760566159 97.87000743792453 24.7288884166704 H 0.0 **** 0.06
7070 H 120.24822500521805 98.80780402598066 24.826299710268643 H 0.0 **** 0.06
7071 C 165.1015583365354 0.4864113505691705 73.09006298818099 C 0.0 **** -0.24
7072 H 164.90573920760403 1.00855756378769 72.15266787230473 H 0.0 **** 0.06
7073 H 165.02754064982628 -0.5884648536179498 72.92948324349572 H 0.0 **** 0.06
7074 H 164.36951549060166 0.7949993037459535 73.83708182060946 H 0.0 **** 0.06
7075 H 166.10414439865843 0.7341410357085181 73.4402252085381 H 0.0 **** 0.06
7076 C 181.53666422379035 23.765359527920964 23.18598430318798 C 0.0 **** -0.24
7077 H 181.131457417204 24.367496656495803 22.37248034094182 H 0.0 **** 0.06
7078 H 182.55716807281937 24.084374244565907 23.40056504815584 H 0.0 **** 0.06
7079 H 181.53819150733125 22.71532765356949 22.89419313845275 H 0.0 **** 0.06
7080 H 180.9205183230812 23.894139487484495 24.07546184460614 H 0.0 **** 0.06
7081 C 46.29881888268244 116.60667000045952 99.09664737714242 C 0.0 **** -0.24
7082 H 46.09002337124686 116.66727848953606 100.16475758181666 H 0.0 **** 0.06
7083 H 45.408865715077056 116.25581448276996 98.5725346310471 H 0.0 **** 0.06
7084 H 47.119234162749635 115.9105312665619 98.92489181801814 H 0.0 **** 0.06
7085 H 46.57466156207251 117.59259428724 98.7231470843367 H 0.0 **** 0.06
7086 C 111.91237448936083 88.75410999060041 51.45727775330505 C 0.0 **** -0.24
7087 H 112.01916914650072 89.3121480402222 50.52780060677378 H 0.0 **** 0.06
7088 H 110.86071778349073 88.51953991291823 51.62238504845857 H 0.0 **** 0.06
7089 H 112.284972193835 89.35536584972901 52.28705165292905 H 0.0 **** 0.06
7090 H 112.48536266398541 87.82866232269505 51.39409907651543 H 0.0 **** 0.06
7091 C 82.31661370729755 7.383255373278587 79.11343043796823 C 0.0 **** -0.24
7092 H 83.15636545184833 8.05567328966714 78.93738066685036 H 0.0 **** 0.06
7093 H 81.75991178643358 7.718825919551875 79.98937038160157 H 0.0 **** 0.06
7094 H 82.68997101838447 6.3737641494435024 79.28487764429165 H 0.0 **** 0.06
7095 H 81.66108260846198 7.385567833308926 78.24334885486923 H 0.0 **** 0.06
7096 C 4.702551557090317 48.838184983275426 82.02241407388142 C 0.0 **** -0.24
7097 H 5.686868600380137 48.99575403405538 82.46203582937383 H 0.0 **** 0.06
7098 H 3.9923972594122574 48.57761563351457 82.80692910893849 H 0.0 **** 0.06
7099 H 4.755028329998908 48.02714653218044 81.29549371831335 H 0.0 **** 0.06
7100 H 4.377173412255871 49.752161940260294 81.524561111235 H 0.0 **** 0.06
7101 C 52.41422764120588 165.13092783099094 124.80440319839393 C 0.0 **** -0.24
7102 H 52.75425170436364 164.27259235610995 124.22378004496566 H 0.0 **** 0.06
7103 H 51.567664168976094 164.8364114084883 125.42539414096105 H 0.0 **** 0.06
7104 H 52.10985373253821 165.9287406259029 124.12740348216029 H 0.0 **** 0.06
7105 H 53.22588274327646 165.4838010364733 125.44016403736047 H 0.0 **** 0.06
7106 C 118.68315675741773 46.340024332473035 54.00229442401752 C 0.0 **** -0.24
7107 H 118.65518538842802 45.24984790202507 54.035631677862796 H 0.0 **** 0.06
7108 H 119.57774044686538 46.69556943027027 54.513339493684555 H 0.0 **** 0.06
7109 H 117.79800824546628 46.7403929205272 54.496120767456404 H 0.0 **** 0.06
7110 H 118.70174019256562 46.6713116804915 52.964466553174816 H 0.0 **** 0.06
7111 C 40.97592336540589 110.30136340582021 80.66625073439606 C 0.0 **** -0.24
7112 H 41.659234700998425 109.86163768138277 79.93993863775056 H 0.0 **** 0.06
7113 H 40.397638083044384 111.09195826562762 80.18736841076513 H 0.0 **** 0.06
7114 H 41.54691804482643 110.7184440363011 81.49550833974689 H 0.0 **** 0.06
7115 H 40.30063015279629 109.53210668555488 81.04052540964025 H 0.0 **** 0.06
7116 C 169.4504693056025 114.60083966168611 115.04797996079854 C 0.0 **** -0.24
7117 H 168.88330010316295 114.431956656576 114.13208476294899 H 0.0 **** 0.06
7118 H 170.06541082733975 115.49338900523253 114.93517063894033 H 0.0 **** 0.06
7119 H 170.0912546346872 113.74039124023449 115.24091269960384 H 0.0 **** 0.06
7120 H 168.76206956429243 114.73551494782436 115.88162178989204 H 0.0 **** 0.06
7121 C 106.63839727793503 63.87909468652491 97.8759614137619 C 0.0 **** -0.24
7122 H 107.65699558152288 63.789511555605046 97.49877748619627 H 0.0 **** 0.06
7123 H 106.10479522117636 62.943979249329075 97.70635503617547 H 0.0 **** 0.06
7124 H 106.12830547054186 64.68946584276478 97.35469726481728 H 0.0 **** 0.06
7125 H 106.66425584057338 64.09496495437348 98.94382222533665 H 0.0 **** 0.06
7126 C 105.00726236260783 119.1684882806962 125.40037512363615 C 0.0 **** -0.24
7127 H 105.08397655903912 120.01600962642205 126.08256124174905 H 0.0 **** 0.06
7128 H 105.8555804044293 119.17697678973893 124.7149111604737 H 0.0 **** 0.06
7129 H 104.07960947119318 119.24274388903636 124.8330184658982 H 0.0 **** 0.06
7130 H 105.01111015161143 118.24148032070478 125.97238190812801 H 0.0 **** 0.06
7131 C 117.47379658794392 144.96425950819753 24.940330133420304 C 0.0 **** -0.24
7132 H 118.0673164262958 145.62608656688687 25.569792975536217 H 0.0 **** 0.06
7133 H 117.48708289710618 145.32982119854088 23.91300958223664 H 0.0 **** 0.06
7134 H 116.44671302239055 144.94080652577145 25.305658328758 H 0.0 **** 0.06
7135 H 117.89396650684131 143.95849753406284 24.97414554511431 H 0.0 **** 0.06
7136 C 135.79860641448897 149.38091763218762 31.235487911432188 C 0.0 **** -0.24
7137 H 136.4993016495677 148.96446914853442 31.958781902670353 H 0.0 **** 0.06
7138 H 136.2532658510325 149.37541074371453 30.244766538682995 H 0.0 **** 0.06
7139 H 135.55256235616127 150.40570585972884 31.517099028061295 H 0.0 **** 0.06
7140 H 134.88936172504197 148.78045049071218 31.221935998989352 H 0.0 **** 0.06
7141 C 4.79329750623657 44.434643522473465 94.5487555845587 C 0.0 **** -0.24
7142 H 4.974037608375738 45.02672924844747 93.65046391551664 H 0.0 **** 0.06
7143 H 5.148900372321634 43.41684408876476 94.38911138171989 H 0.0 **** 0.06
7144 H 3.7253498992499203 44.41840827338558 94.76386407480118 H 0.0 **** 0.06
7145 H 5.326981687063892 44.879190849997784 95.388951537048 H 0.0 **** 0.06
7146 C 167.30906310616587 177.26071681236826 62.82180172221722 C 0.0 **** -0.24
7147 H 168.11201855339874 176.5250098384648 62.78503022439533 H 0.0 **** 0.06
7148 H 166.79896555841646 177.28976857673598 61.8595778289705 H 0.0 **** 0.06
7149 H 167.72739117036082 178.2429096636954 63.04192940811377 H 0.0 **** 0.06
7150 H 166.5997899548821 176.9855966611952 63.601749693051445 H 0.0 **** 0.06
7151 C 126.60689099673988 48.06845331255249 13.305566085772156 C 0.0 **** -0.24
7152 H 126.93852877184264 47.039368940753036 13.446888860036864 H 0.0 **** 0.06
7153 H 126.01692505247416 48.136711438612565 12.391818109034936 H 0.0 **** 0.06
7154 H 127.47549409958742 48.72221190243499 13.227216121924613 H 0.0 **** 0.06
7155 H 125.99738979601375 48.37333749330128 14.155545059872495 H 0.0 **** 0.06
7156 C 152.6393004251209 131.20155970065383 136.8141538809707 C 0.0 **** -0.24
7157 H 153.24827580296787 130.429689079124 136.34235294420978 H 0.0 **** 0.06
7158 H 151.9006475833079 130.73385376279083 137.4654621869933 H 0.0 **** 0.06
7159 H 152.13077237207898 131.78300571357187 136.04635047540216 H 0.0 **** 0.06
7160 H 153.27985541976057 131.8578822414405 137.40355051595105 H 0.0 **** 0.06
7161 C 71.04116964032094 17.580212068151127 180.02745529515994 C 0.0 **** -0.24
7162 H 70.25523369252947 17.626181311091727 179.27410354514984 H 0.0 **** 0.06
7163 H 71.27739043833829 16.53693303538614 180.24106943585727 H 0.0 **** 0.06
7164 H 70.69970761498294 18.07005504211594 180.9393636840675 H 0.0 **** 0.06
7165 H 71.93189110298489 18.085797342068815 179.6547822955484 H 0.0 **** 0.06
7166 C 38.300426637368275 70.37149830894771 170.13539104978977 C 0.0 **** -0.24
7167 H 37.62947624999242 70.64927879533144 170.94796715716836 H 0.0 **** 0.06
7168 H 38.51695253423139 71.25087000158334 169.5273520957959 H 0.0 **** 0.06
7169 H 37.82602592903942 69.60954645236791 169.51649791435472 H 0.0 **** 0.06
7170 H 39.22815388093619 69.97753612701445 170.54923558639007 H 0.0 **** 0.06
7171 C 98.87580325342391 23.09957179278399 12.3230548349824 C 0.0 **** -0.24
7172 H 99.6983105612844 23.794435360536056 12.490170644126778 H 0.0 **** 0.06
7173 H 99.07336991637659 22.16867681850897 12.85537555134502 H 0.0 **** 0.06
7174 H 98.78377679860434 22.895806690937263 11.256905575944103 H 0.0 **** 0.06
7175 H 97.94841667158057 23.538768290129724 12.690864474275287 H 0.0 **** 0.06
7176 C 96.76159223273199 47.25780679198752 5.871320453505348 C 0.0 **** -0.24
7177 H 96.06562014087187 47.41846916100155 6.693598247179409 H 0.0 **** 0.06
7178 H 97.33464807103455 46.348125013944525 6.053038511775583 H 0.0 **** 0.06
7179 H 97.44139656650258 48.106355192013154 5.7990568649326235 H 0.0 **** 0.06
7180 H 96.2058414534042 47.156946523060185 4.938197374062611 H 0.0 **** 0.06
7181 C 93.6299627124419 59.78264189646647 177.80657739658074 C 0.0 **** -0.24
7182 H 94.40210263773655 59.88218935329685 178.56952536678034 H 0.0 **** 0.06
7183 H 92.67799992526601 60.13246633506283 178.206187308954 H 0.0 **** 0.06
7184 H 93.53977250538115 58.73707724488537 177.51464656383465 H 0.0 **** 0.06
7185 H 93.9009792446406 60.381917313608156 176.9366507285029 H 0.0 **** 0.06
7186 C 125.4683491046149 146.98528371962274 142.48771274831608 C 0.0 **** -0.24
7187 H 124.94941351051358 147.19426528616563 143.4227426388239 H 0.0 **** 0.06
7188 H 126.44409541252537 146.55042720965594 142.70360928350527 H 0.0 **** 0.06
7189 H 125.59814506716549 147.91166793160335 141.92927149518505 H 0.0 **** 0.06
7190 H 124.88081254927863 146.28381809924286 141.89569743286552 H 0.0 **** 0.06
7191 C 79.04368658425423 34.452318689888784 167.98988992774193 C 0.0 **** -0.24
7192 H 77.9975774014115 34.15667552711332 168.06653227418207 H 0.0 **** 0.06
7193 H 79.16482586641291 35.14703293947332 167.15869996697762 H 0.0 **** 0.06
7194 H 79.6591525222146 33.56860822542055 167.81815499992533 H 0.0 **** 0.06
7195 H 79.35337054856666 34.935961415202826 168.91715955293972 H 0.0 **** 0.06
7196 C 61.85648745861769 52.60263724657034 66.80126626166657 C 0.0 **** -0.24
7197 H 61.72694742379157 51.536707742242925 66.98826634396295 H 0.0 **** 0.06
7198 H 62.8190438128356 52.77203852428403 66.31684198565665 H 0.0 **** 0.06
7199 H 61.82580804691678 53.143582750985615 67.74749462637317 H 0.0 **** 0.06
7200 H 61.05600849701786 52.95835274556168 66.15319044876202 H 0.0 **** 0.06
7201 C 138.77975573020535 64.25227982798813 13.995699310388005 C 0.0 **** -0.24
7202 H 138.94267457985757 63.439819912853665 14.704117765502815 H 0.0 **** 0.06
7203 H 139.54640151858848 64.218950002786 13.2216878651368 H 0.0 **** 0.06
7204 H 138.83368163228153 65.20735425866049 14.51949051407729 H 0.0 **** 0.06
7205 H 137.79538587678775 64.14371482043826 13.539146989801793 H 0.0 **** 0.06
7206 C 171.92965843071718 103.00831475191336 141.10479932497753 C 0.0 **** -0.24
7207 H 172.71650105433275 103.51664706859361 141.66227875038487 H 0.0 **** 0.06
7208 H 171.20550273330957 102.58695621591926 141.802276121077 H 0.0 **** 0.06
7209 H 172.36668537802177 102.208982024634 140.5072426545275 H 0.0 **** 0.06
7210 H 171.43053576186242 103.72144736306319 140.4488322523158 H 0.0 **** 0.06
7211 C 164.1872298457388 145.6730254246226 174.96018106329308 C 0.0 **** -0.24
7212 H 163.87624633043626 144.6301103769926 175.01318858517726 H 0.0 **** 0.06
7213 H 163.6729420225552 146.1634192380879 174.13328486574795 H 0.0 **** 0.06
7214 H 165.26440705352763 145.72377936947686 174.8004416793848 H 0.0 **** 0.06
7215 H 163.9340981848719 146.17538660288886 175.8941896230316 H 0.0 **** 0.06
7216 C 139.53423605114176 120.77496231859918 63.6564817440227 C 0.0 **** -0.24
7217 H 138.50856544934442 121.131531693378 63.56307160003054 H 0.0 **** 0.06
7218 H 140.2189863833189 121.62278464568841 63.61758862650966 H 0.0 **** 0.06
7219 H 139.75697226050397 120.09008938935149 62.83852025001114 H 0.0 **** 0.06
7220 H 139.6528578823208 120.25577470058046 64.6075823930527 H 0.0 **** 0.06
7221 C 136.54675684970647 128.101780789494 180.16609041631608 C 0.0 **** -0.24
7222 H 135.76725798123783 127.36562743363845 180.36686431190526 H 0.0 **** 0.06
7223 H 137.24313461080834 127.70123071985506 179.42947381596173 H 0.0 **** 0.06
7224 H 137.08181955268407 128.32464146265556 181.08855903796973 H 0.0 **** 0.06
7225 H 136.09302462957857 129.01395636107867 179.77934483121464 H 0.0 **** 0.06
7226 C 152.82137377243004 117.17778781549885 22.528305875398075 C 0.0 **** -0.24
7227 H 152.60013546980807 117.99461505655836 21.8401690619159 H 0.0 **** 0.06
7228 H 153.89879609192255 117.01162643384902 22.560429667120957 H 0.0 **** 0.06
7229 H 152.3228698492916 116.27070977890008 22.18613246291335 H 0.0 **** 0.06
7230 H 152.46342477808264 117.4364768955503 23.524314316767345 H 0.0 **** 0.06
7231 C 96.4782127129467 109.43054474981356 166.54916388917752 C 0.0 **** -0.24
7232 H 96.44252846236485 110.49722993206267 166.32910774871988 H 0.0 **** 0.06
7233 H 95.46451264691508 109.05784277876653 166.7033483035758 H 0.0 **** 0.06
7234 H 97.06623326086721 109.26599061027476 167.45173915941217 H 0.0 **** 0.06
7235 H 96.93766693712278 108.90213603446601 165.71428043028766 H 0.0 **** 0.06
7236 C 103.55933008446743 90.25529109052378 32.413713917379184 C 0.0 **** -0.24
7237 H 103.41637924495592 89.281510470519 32.881031474598686 H 0.0 **** 0.06
7238 H 103.04719142299297 91.01817914221049 33.000075729996865 H 0.0 **** 0.06
7239 H 103.14856363046732 90.23732926522909 31.40362546249993 H 0.0 **** 0.06
7240 H 104.62372844785267 90.48459940365272 32.36930479832547 H 0.0 **** 0.06
7241 C 11.5093019547528 48.70639218857218 18.94948782879638 C 0.0 **** -0.24
7242 H 12.398154751412704 48.60226485109011 19.573142067771784 H 0.0 **** 0.06
7243 H 11.724302146236738 48.33849238111583 17.9469680155444 H 0.0 **** 0.06
7244 H 11.223430832837266 49.75681773774302 18.899146798186393 H 0.0 **** 0.06
7245 H 10.692976800658187 48.12831832565951 19.382713195609597 H 0.0 **** 0.06
7246 C 110.2818879915864 2.5187202091608754 107.44743800167247 C 0.0 **** -0.24
7247 H 109.45831716856459 2.7964287844778823 108.1049898259141 H 0.0 **** 0.06
7248 H 110.01245059644405 2.7419834395485623 106.41487352601759 H 0.0 **** 0.06
7249 H 110.48370359754539 1.4523628395328387 107.54795059244874 H 0.0 **** 0.06
7250 H 111.17241817958863 3.0845210937313823 107.7207596089312 H 0.0 **** 0.06
7251 C 147.18894862445 31.226285882540594 78.64357237194282 C 0.0 **** -0.24
7252 H 146.58582210644838 31.990844338713316 79.13457966889801 H 0.0 **** 0.06
7253 H 146.5831910631879 30.708698721252347 77.89976146152895 H 0.0 **** 0.06
7254 H 147.5436759482514 30.51092138561748 79.38591497415824 H 0.0 **** 0.06
7255 H 148.04235646700522 31.696971498034884 78.15446247326618 H 0.0 **** 0.06
7256 C 117.17470401235266 146.965648858244 62.86890419119074 C 0.0 **** -0.24
7257 H 118.2153356589182 146.98998723935665 62.54569871585082 H 0.0 **** 0.06
7258 H 117.0627701101086 147.55747165556932 63.777520693283094 H 0.0 **** 0.06
7259 H 116.88004427811927 145.93520908821782 63.068533582794586 H 0.0 **** 0.06
7260 H 116.54113443034981 147.37960079128663 62.085498992534966 H 0.0 **** 0.06
7261 C 69.08965029378528 26.478313169645276 89.83652651183517 C 0.0 **** -0.24
7262 H 68.8110276780725 25.825236403514225 89.00948084210425 H 0.0 **** 0.06
7263 H 69.97589879139848 27.050918372929004 89.56452793654465 H 0.0 **** 0.06
7264 H 69.30199271294292 25.87664340648189 90.71968081914711 H 0.0 **** 0.06
7265 H 68.26652560503541 27.161618798284962 90.05159066948552 H 0.0 **** 0.06
7266 C 52.49552728377478 132.0467798259279 21.08192547210649 C 0.0 **** -0.24
7267 H 52.13828389799971 132.1615802610399 22.105802130660408 H 0.0 **** 0.06
7268 H 53.00827565012469 132.95736851837012 20.771642189348782 H 0.0 **** 0.06
7269 H 51.648040154600096 131.8635305904441 20.420134955172074 H 0.0 **** 0.06
7270 H 53.18512577937048 131.20504517170446 21.03051520582435 H 0.0 **** 0.06
7271 C 50.168853529388514 122.09410523536576 180.85017367547908 C 0.0 **** -0.24
7272 H 49.95619348866214 121.39344483877585 180.0424335618947 H 0.0 **** 0.06
7273 H 49.38598042950338 122.85098064625822 180.89028186328113 H 0.0 **** 0.06
7274 H 51.1308830797534 122.57510788322924 180.6692925079116 H 0.0 **** 0.06
7275 H 50.20374548444369 121.55655490964466 181.79770602815876 H 0.0 **** 0.06
7276 C 102.04465384143981 40.594235219895666 48.60607365698195 C 0.0 **** -0.24
7277 H 101.62975099766822 40.500998126234435 49.60926945865606 H 0.0 **** 0.06
7278 H 103.11127118901692 40.37223134353303 48.63162877040941 H 0.0 **** 0.06
7279 H 101.8931443851497 41.61097441439932 48.24281387073091 H 0.0 **** 0.06
7280 H 101.54276074379601 39.89257169793734 47.939125377802384 H 0.0 **** 0.06
7281 C 41.020164011901215 137.0763729182425 175.55873452637474 C 0.0 **** -0.24
7282 H 40.49545667162255 137.02698733409255 176.51338559320612 H 0.0 **** 0.06
7283 H 40.38922837170037 137.57424861804242 174.82298772994153 H 0.0 **** 0.06
7284 H 41.24861158735101 136.0661699224937 175.21838178779737 H 0.0 **** 0.06
7285 H 41.947140521761526 137.6360936516573 175.68282566524076 H 0.0 **** 0.06
7286 C 96.775631516932 30.818273207605046 103.76744135150709 C 0.0 **** -0.24
7287 H 96.7820922371178 31.32450472598984 102.80252878864069 H 0.0 **** 0.06
7288 H 96.95867310306566 31.543958005593936 104.56007160700933 H 0.0 **** 0.06
7289 H 97.55667613821844 30.057679842333812 103.78448286887352 H 0.0 **** 0.06
7290 H 95.80561996881524 30.34551163126173 103.92348451321668 H 0.0 **** 0.06
7291 C 117.43548490368967 46.059421822026096 93.34076061442062 C 0.0 **** -0.24
7292 H 117.38005048630838 47.12497867365573 93.11684545772738 H 0.0 **** 0.06
7293 H 117.72544539731793 45.92237010422325 94.38261766197974 H 0.0 **** 0.06
7294 H 118.17443579484991 45.5906018161612 92.69182323873622 H 0.0 **** 0.06
7295 H 116.46047684671974 45.60250315697493 93.1718080113261 H 0.0 **** 0.06
7296 C 79.98641114062895 48.30539887820282 113.64948721301475 C 0.0 **** -0.24
7297 H 79.18223486220046 49.04018921503092 113.7029948889 H 0.0 **** 0.06
7298 H 79.73019595069434 47.441803327205434 114.26264612128965 H 0.0 **** 0.06
7299 H 80.91056180738246 48.751603711453754 114.01629935201147 H 0.0 **** 0.06
7300 H 80.12068267979612 47.9902794030931 112.61402776519417 H 0.0 **** 0.06
7301 C 68.84159919604811 98.45281286047144 128.1690435251134 C 0.0 **** -0.24
7302 H 67.98018375936797 98.74134508876027 128.7712527561851 H 0.0 **** 0.06
7303 H 68.5038160972315 98.12120992003948 127.18708709223309 H 0.0 **** 0.06
7304 H 69.37475691480195 97.64051363980023 128.66360919375046 H 0.0 **** 0.06
7305 H 69.50804141059875 99.30799766455856 128.0551220710326 H 0.0 **** 0.06
7306 C 155.19437552522822 157.7427818182381 172.45985284950973 C 0.0 **** -0.24
7307 H 154.55474846653397 156.88264171469982 172.2652132843932 H 0.0 **** 0.06
7308 H 155.78847349251086 157.55753748443266 173.35576888940795 H 0.0 **** 0.06
7309 H 154.57740171926923 158.62873695638797 172.60901776589685 H 0.0 **** 0.06
7310 H 155.8586447666256 157.90132110717911 171.60970812210644 H 0.0 **** 0.06
7311 C 33.277113305755705 176.5571236765247 76.47335601595812 C 0.0 **** -0.24
7312 H 33.39999394755297 175.82210263954687 75.67695986869589 H 0.0 **** 0.06
7313 H 32.29641085925722 176.43457759417117 76.93241322173459 H 0.0 **** 0.06
7314 H 33.36064892311977 177.56059597943045 76.0553936801694 H 0.0 **** 0.06
7315 H 34.05294262390589 176.41070931805737 77.22473811817986 H 0.0 **** 0.06
7316 C 46.365437074670865 129.00323651130617 96.64070440017383 C 0.0 **** -0.24
7317 H 46.78121755486558 129.08803198124355 97.64508216873872 H 0.0 **** 0.06
7318 H 47.111557189196645 129.3205355258362 95.91127619510326 H 0.0 **** 0.06
7319 H 45.48279487407348 129.6378830865662 96.55899856485917 H 0.0 **** 0.06
7320 H 46.08770028924579 127.96696086271739 96.44903172992338 H 0.0 **** 0.06
7321 C 49.25004067178878 148.41807813378426 6.003403195366381 C 0.0 **** -0.24
7322 H 49.41000737324643 149.17739455924084 6.7691489716808135 H 0.0 **** 0.06
7323 H 48.6184054470894 147.62489350639026 6.404474852672685 H 0.0 **** 0.06
7324 H 50.210898684947495 147.999913872423 5.700994649962368 H 0.0 **** 0.06
7325 H 48.76318474538658 148.86992434085215 5.139715374572958 H 0.0 **** 0.06
7326 C 13.606602724871237 27.7028331107971 157.3612270850913 C 0.0 **** -0.24
7327 H 14.351842774606872 27.676191582336372 156.567308437891 H 0.0 **** 0.06
7328 H 13.802484988475832 26.898718864168345 158.07074930993488 H 0.0 **** 0.06
7329 H 12.612707336587945 27.57526124755988 156.93136924891962 H 0.0 **** 0.06
7330 H 13.658511161951424 28.662110989060068 157.87607252452145 H 0.0 **** 0.06
7331 C 96.8156122599246 122.61256174867457 97.30521662894249 C 0.0 **** -0.24
7332 H 96.76763364525162 122.06003062439525 98.24445451864035 H 0.0 **** 0.06
7333 H 96.7888231441881 123.68213585022288 97.51130380702129 H 0.0 **** 0.06
7334 H 95.96459890973536 122.34102549958969 96.68097813704036 H 0.0 **** 0.06
7335 H 97.74195794550077 122.36494771633205 96.78593024420324 H 0.0 **** 0.06
7336 C 102.02366591123287 79.84662679887387 58.86260633066378 C 0.0 **** -0.24
7337 H 100.93805883572979 79.78048037123112 58.788253795673256 H 0.0 **** 0.06
7338 H 102.47205977602955 78.96077863983251 58.41238488095057 H 0.0 **** 0.06
7339 H 102.3125590489311 79.90936923139749 59.9111402946689 H 0.0 **** 0.06
7340 H 102.3693610144365 80.7369431671225 58.336201493920655 H 0.0 **** 0.06
7341 C 134.22676791031745 144.95216518755302 162.02821187215883 C 0.0 **** -0.24
7342 H 135.28159480990882 144.99005166879326 162.29955516077268 H 0.0 **** 0.06
7343 H 133.65059320950127 145.56613262126646 162.7218155883305 H 0.0 **** 0.06
7344 H 133.87550021096814 143.9215900406965 162.07770155675323 H 0.0 **** 0.06
7345 H 134.09941264181504 145.33204397132914 161.0145871363758 H 0.0 **** 0.06
7346 C 22.640557882390496 76.03183975950323 77.49749303509795 C 0.0 **** -0.24
7347 H 22.71534960839699 77.11018468961409 77.63594432617488 H 0.0 **** 0.06
7348 H 23.21674179438766 75.52466905829007 78.27236746403992 H 0.0 **** 0.06
7349 H 23.03475511563606 75.7635162382325 76.51656927175675 H 0.0 **** 0.06
7350 H 21.595280487062865 75.7282641379151 77.56388127517324 H 0.0 **** 0.06
7351 C 90.22459250761335 58.424888782792806 110.17050215003736 C 0.0 **** -0.24
7352 H 89.9291742161958 58.89928472929381 111.1060377552531 H 0.0 **** 0.06
7353 H 89.33837481940935 58.0531754930125 109.65569071423504 H 0.0 **** 0.06
7354 H 90.89871004382167 57.59419613797377 110.38196294448123 H 0.0 **** 0.06
7355 H 90.73280263489937 59.15376540102666 109.53919501022743 H 0.0 **** 0.06
7356 C 82.23549578188266 32.44602949871586 13.354849933599503 C 0.0 **** -0.24
7357 H 83.2556618422927 32.42296827091644 13.73631122860985 H 0.0 **** 0.06
7358 H 81.73902634717832 31.504524968319856 13.588412916775667 H 0.0 **** 0.06
7359 H 82.25394245958242 32.589780084122765 12.274589849570717 H 0.0 **** 0.06
7360 H 81.69211861723016 33.26892877046765 13.820452163002493 H 0.0 **** 0.06
7361 C 131.58218981781937 119.25781466356949 65.08740402792185 C 0.0 **** -0.24
7362 H 131.79890757981468 118.59734759114752 65.92713316680998 H 0.0 **** 0.06
7363 H 131.83967940812033 118.75563369531937 64.15465285030118 H 0.0 **** 0.06
7364 H 132.16795337636938 120.1717759774873 65.18387228522403 H 0.0 **** 0.06
7365 H 130.52090178882412 119.50545448105623 65.08503914169131 H 0.0 **** 0.06
7366 C 138.13829905540103 2.516043789121511 140.6210365018702 C 0.0 **** -0.24
7367 H 137.53522698780915 1.7986958774767174 141.17795968033084 H 0.0 **** 0.06
7368 H 138.7075796433407 1.9933553851137447 139.85308677614154 H 0.0 **** 0.06
7369 H 138.823902919445 3.0196939966528475 141.3029765208638 H 0.0 **** 0.06
7370 H 137.48557779663236 3.2527116749988068 140.1523801736834 H 0.0 **** 0.06
7371 C 170.37601733555596 132.52230272870122 6.9217911601510025 C 0.0 **** -0.24
7372 H 170.95233806715208 133.32455734013178 7.382636380199585 H 0.0 **** 0.06
7373 H 170.47356306730148 131.61601303557336 7.519724428119872 H 0.0 **** 0.06
7374 H 170.75244900848338 132.33655196003065 5.91609180187146 H 0.0 **** 0.06
7375 H 169.3274239472554 132.81336444409447 6.869922877674476 H 0.0 **** 0.06
7376 C 23.542729778502803 90.38458193176514 182.08067938152698 C 0.0 **** -0.24
7377 H 23.768911615290563 89.6713681654155 181.2876048070682 H 0.0 **** 0.06
7378 H 22.985745780358457 91.22461431596425 181.66575555577282 H 0.0 **** 0.06
7379 H 24.47304027699613 90.74504121113758 182.520264254911 H 0.0 **** 0.06
7380 H 22.94490783945838 89.89505307986401 182.84879380598738 H 0.0 **** 0.06
7381 C 100.51282982330956 128.54396816921536 62.49908015378452 C 0.0 **** -0.24
7382 H 101.54537733754493 128.88676713604042 62.444045368229055 H 0.0 **** 0.06
7383 H 100.44507302937954 127.70152893026669 63.18710667815144 H 0.0 **** 0.06
7384 H 100.18121471107396 128.23164960823982 61.50797827261654 H 0.0 **** 0.06
7385 H 99.87942877089104 129.35668609278127 62.85487230028279 H 0.0 **** 0.06
7386 C 20.647224610190477 131.61584631296898 105.79784733184327 C 0.0 **** -0.24
7387 H 20.834832259510904 132.66140841629448 105.55357776702498 H 0.0 **** 0.06
7388 H 19.571722775693843 131.4408845744088 105.84506589734364 H 0.0 **** 0.06
7389 H 21.097645191830992 131.38141844416748 106.76230740624628 H 0.0 **** 0.06
7390 H 21.084309470361404 130.97944892066602 105.02824772627254 H 0.0 **** 0.06
7391 C 99.6126343337125 43.48546544336608 63.20177640669209 C 0.0 **** -0.24
7392 H 100.39157820850617 43.852397965752616 63.87091417484697 H 0.0 **** 0.06
7393 H 98.63436912024936 43.69420734078243 63.63512772170091 H 0.0 **** 0.06
7394 H 99.72924213772636 42.410074754068646 63.06568503836388 H 0.0 **** 0.06
7395 H 99.69824272203552 43.985497422778906 62.23696627535284 H 0.0 **** 0.06
7396 C 30.111202643746367 167.2256312134092 140.8880746143821 C 0.0 **** -0.24
7397 H 30.64007811255385 168.10582924807994 140.52376911264082 H 0.0 **** 0.06
7398 H 29.039263211851363 167.36101901521022 140.74554970185045 H 0.0 **** 0.06
7399 H 30.32223812611801 167.08865629612194 141.94868776856066 H 0.0 **** 0.06
7400 H 30.44404732237561 166.34683474385224 140.33483906433423 H 0.0 **** 0.06
7401 C 4.541744171209643 68.49045528161587 103.05523132888983 C 0.0 **** -0.24
7402 H 4.996430393077958 68.10008244119994 103.96541363754689 H 0.0 **** 0.06
7403 H 3.462522811871935 68.33498635179166 103.09337694527325 H 0.0 **** 0.06
7404 H 4.954398686623108 67.97008104359355 102.19148122458229 H 0.0 **** 0.06
7405 H 4.752954463241792 69.55728966229334 102.97292692442012 H 0.0 **** 0.06
7406 C 112.92441475500806 79.75788636383712 181.14481224290472 C 0.0 **** -0.24
7407 H 111.8538870772689 79.56085357006009 181.2122730813952 H 0.0 **** 0.06
7408 H 113.08603473408874 80.81957325750918 180.9564368138357 H 0.0 **** 0.06
7409 H 113.35021903733099 79.1738468277309 180.3290433470707 H 0.0 **** 0.06
7410 H 113.4045575162362 79.47727721591488 182.08198020267827 H 0.0 **** 0.06
7411 C 98.7957159145105 105.95969610898243 168.13316863698293 C 0.0 **** -0.24
7412 H 98.43217108154074 106.45473595016415 167.23267428735392 H 0.0 **** 0.06
7413 H 98.97326456204964 106.70265252634397 168.91099356149644 H 0.0 **** 0.06
7414 H 99.7252388052902 105.43734785157255 167.90966287661186 H 0.0 **** 0.06
7415 H 98.05078991891496 105.2426546141673 168.47902718225689 H 0.0 **** 0.06
7416 C 105.30129486776212 38.21853922152587 86.84335859668528 C 0.0 **** -0.24
7417 H 105.82474640758551 39.017551744034336 87.37022849031734 H 0.0 **** 0.06
7418 H 104.43236380235726 38.629945746658194 86.33100734441416 H 0.0 **** 0.06
7419 H 104.97709687126923 37.46374161793193 87.56030393490835 H 0.0 **** 0.06
7420 H 105.97242581801032 37.764214171474634 86.11457923644411 H 0.0 **** 0.06
7421 C 85.41259831260355 87.01607872890047 167.2442851590927 C 0.0 **** -0.24
7422 H 84.84857754571881 86.31302233764568 167.85725958721434 H 0.0 **** 0.06
7423 H 86.480001944145 86.84023986777494 167.37864866225647 H 0.0 **** 0.06
7424 H 85.17100439258425 88.03596590098364 167.54642244546955 H 0.0 **** 0.06
7425 H 85.14935067233213 86.87599785746916 166.19583087088606 H 0.0 **** 0.06
7426 C 23.436685672983614 36.98394021485524 152.5721640167397 C 0.0 **** -0.24
7427 H 23.178833124453234 36.31071902767482 153.39057692870753 H 0.0 **** 0.06
7428 H 24.330717932492988 37.54894953726415 152.83580230321814 H 0.0 **** 0.06
7429 H 22.61002283157481 37.67284713416123 152.39567834782002 H 0.0 **** 0.06
7430 H 23.62448625299085 36.403565047110305 151.66918729807577 H 0.0 **** 0.06
7431 C 136.59608701636932 6.470930868345391 115.31965147082543 C 0.0 **** -0.24
7432 H 137.6183445755579 6.759207085795197 115.56686938328959 H 0.0 **** 0.06
7433 H 136.16083059773263 5.923930191665988 116.1557707591762 H 0.0 **** 0.06
7434 H 136.6025619658763 5.835868131862526 114.43315680835069 H 0.0 **** 0.06
7435 H 136.00513498389705 7.365402318298038 115.12133884681803 H 0.0 **** 0.06
7436 C 141.278187535979 127.97394076028314 155.5969821271044 C 0.0 **** -0.24
7437 H 141.03944786868874 126.92167857872369 155.44099479536015 H 0.0 **** 0.06
7438 H 141.700284080941 128.10554054208194 156.59300589874596 H 0.0 **** 0.06
7439 H 140.36966153024218 128.56968457230704 155.50475854724914 H 0.0 **** 0.06
7440 H 142.00169647820877 128.29659935311196 154.84879993830828 H 0.0 **** 0.06
7441 C 44.12219432964582 147.39031883401913 27.543452070651995 C 0.0 **** -0.24
7442 H 43.32188708056657 147.17662095079223 28.252096474259318 H 0.0 **** 0.06
7443 H 44.06347246127359 148.43304999954083 27.232972122941575 H 0.0 **** 0.06
7444 H 44.01828629415536 146.74428585507297 26.67190065795313 H 0.0 **** 0.06
7445 H 45.08650304228678 147.205827757397 28.019051863072434 H 0.0 **** 0.06
7446 C 156.95481268662377 13.55141122932207 175.6791131196513 C 0.0 **** -0.24
7447 H 158.01067459855608 13.486877485069158 175.41980955977033 H 0.0 **** 0.06
7448 H 156.82292168635394 13.297840292508624 176.73157449118494 H 0.0 **** 0.06
7449 H 156.38611785702784 12.854179218846525 175.06315768419086 H 0.0 **** 0.06
7450 H 156.59796842992932 14.566445205803234 175.50258101659244 H 0.0 **** 0.06
7451 C 61.39812483355411 61.74248995022528 116.24482193595712 C 0.0 **** -0.24
7452 H 61.598527677354596 61.785385353206465 115.17427906111935 H 0.0 **** 0.06
7453 H 61.440520771782474 60.707028845677186 116.5819187120979 H 0.0 **** 0.06
7454 H 60.407231752166894 62.14999758332921 116.44486640518728 H 0.0 **** 0.06
7455 H 62.146054378023294 62.330260826001876 116.77744015619079 H 0.0 **** 0.06
7456 C 45.77547325377692 14.845287624840125 44.39323868595355 C 0.0 **** -0.24
7457 H 45.77902843753739 14.045938335974824 45.133886661834765 H 0.0 **** 0.06
7458 H 46.80108755479324 15.075679230454398 44.10183617946694 H 0.0 **** 0.06
7459 H 45.31183532948941 15.734874607965565 44.821647697612605 H 0.0 **** 0.06
7460 H 45.2108407424565 14.52651122409705 43.51752293466987 H 0.0 **** 0.06
7461 C 164.68506982580092 167.3904394183525 70.89621608074769 C 0.0 **** -0.24
7462 H 164.90715417305614 166.9446887219821 69.92609637244004 H 0.0 **** 0.06
7463 H 165.41392710094547 167.0432936323083 71.62981630134803 H 0.0 **** 0.06
7464 H 163.684205108342 167.09454417949675 71.21034214567105 H 0.0 **** 0.06
7465 H 164.73612906618547 168.47577883803697 70.81772004663529 H 0.0 **** 0.06
7466 C 166.4734569342067 27.560040755657056 86.08251150460033 C 0.0 **** -0.24
7467 H 166.672526672935 26.961243011786593 85.19352451158275 H 0.0 **** 0.06
7468 H 165.49034709171065 27.304495846390367 86.47971200383886 H 0.0 **** 0.06
7469 H 166.4952031529655 28.61785152513798 85.81938063353566 H 0.0 **** 0.06
7470 H 167.23412460010567 27.35602384842565 86.83477284099563 H 0.0 **** 0.06
7471 C 116.49709630269318 26.40713636670364 151.2274556172714 C 0.0 **** -0.24
7472 H 116.56317752227851 26.487978359940485 152.3122049869188 H 0.0 **** 0.06
7473 H 115.64613935793732 26.987092794779983 150.87062908305603 H 0.0 **** 0.06
7474 H 116.3671197471085 25.360994881103352 150.9491096686021 H 0.0 **** 0.06
7475 H 117.41319422642955 26.79181006166914 150.77789790613986 H 0.0 **** 0.06
7476 C 80.44159368858223 20.963239275090928 18.5461695228459 C 0.0 **** -0.24
7477 H 80.69318163598946 20.66802982489402 19.56496599692997 H 0.0 **** 0.06
7478 H 79.75563850550408 20.233637918165854 18.115760751954213 H 0.0 **** 0.06
7479 H 81.35068430749752 21.006316297500227 17.94625454356313 H 0.0 **** 0.06
7480 H 79.96766746228586 21.94507014088066 18.559528523512824 H 0.0 **** 0.06
7481 C 170.3161164879543 143.3215605509908 25.966687550038955 C 0.0 **** -0.24
7482 H 169.31968239188237 143.6464631502635 26.26514649531879 H 0.0 **** 0.06
7483 H 170.25914559713814 142.81503033016855 25.00373594621294 H 0.0 **** 0.06
7484 H 170.71355477978153 142.63643591488426 26.71598349797722 H 0.0 **** 0.06
7485 H 170.97134644761067 144.18904474455326 25.884102737390776 H 0.0 **** 0.06
7486 C 85.13992019902796 109.87490828706899 94.3683577156927 C 0.0 **** -0.24
7487 H 85.89822909030913 110.49836608603022 94.84306118692086 H 0.0 **** 0.06
7488 H 84.65046505621409 110.44133490534887 93.57520013541154 H 0.0 **** 0.06
7489 H 84.40085277075808 109.5742409956859 95.1099848748919 H 0.0 **** 0.06
7490 H 85.61225165045981 108.98916240969646 93.9445020987481 H 0.0 **** 0.06
7491 C 59.50878954411999 181.9282609906562 3.895357758445357 C 0.0 **** -0.24
7492 H 60.4665873305301 182.3979220716383 3.6707842966758335 H 0.0 **** 0.06
7493 H 59.56415654195433 180.8642391985298 3.667501530663344 H 0.0 **** 0.06
7494 H 58.727324817625004 182.38957925630723 3.291572447955474 H 0.0 **** 0.06
7495 H 59.2781189988887 182.0624663142814 4.952339500014091 H 0.0 **** 0.06
7496 C 21.744475702080095 7.315103494664129 78.71633588358536 C 0.0 **** -0.24
7497 H 20.991125413900072 7.347275765847655 77.92887244599962 H 0.0 **** 0.06
7498 H 22.471478604153575 6.534365640525834 78.49256021878716 H 0.0 **** 0.06
7499 H 21.26324220557477 7.1015728355930605 79.67052419397545 H 0.0 **** 0.06
7500 H 22.250999170661387 8.27907329157361 78.77277692871246 H 0.0 **** 0.06
7501 C 45.12444357624727 83.16951885160825 82.34604051920765 C 0.0 **** -0.24
7502 H 46.15543010830402 82.9650317135605 82.05915183278978 H 0.0 **** 0.06
7503 H 44.664007104992606 83.821722273864 81.60415959435232 H 0.0 **** 0.06
7504 H 45.108051537582014 83.65861667100842 83.31997788156684 H 0.0 **** 0.06
7505 H 44.56987001205587 82.23218831979375 82.40012400151988 H 0.0 **** 0.06
7506 C 181.68084543651784 56.018721842506295 181.93049908908876 C 0.0 **** -0.24
7507 H 180.6944130219372 55.55501354540557 181.96529993868285 H 0.0 **** 0.06
7508 H 181.7694787276601 56.61703384483238 181.02296931880733 H 0.0 **** 0.06
7509 H 182.44651014022705 55.243663394847744 181.93163890839338 H 0.0 **** 0.06
7510 H 181.81078018403315 56.65940780547726 182.8024169803565 H 0.0 **** 0.06
7511 C 89.47558331860863 64.91795016615093 34.39584373108296 C 0.0 **** -0.24
7512 H 89.11447071254464 65.84752477543765 34.83479027916995 H 0.0 **** 0.06
7513 H 89.62496737184533 64.17832676647855 35.182709033871944 H 0.0 **** 0.06
7514 H 90.42059618353714 65.10097698096959 33.88446301936263 H 0.0 **** 0.06
7515 H 88.74166257387743 64.54590409577727 33.68056026301906 H 0.0 **** 0.06
7516 C 184.8521932120158 55.37326102383986 7.8980208819388125 C 0.0 **** -0.24
7517 H 185.41252173025296 55.82814260899144 8.716026447765962 H 0.0 **** 0.06
7518 H 184.7506461857708 56.09176846575542 7.084370076793782 H 0.0 **** 0.06
7519 H 183.8630077158507 55.084462512328855 8.25382679356072 H 0.0 **** 0.06
7520 H 185.3825836128604 54.49076554062455 7.540619004846576 H 0.0 **** 0.06
7521 C 91.95257494112609 121.86403474410501 26.93292117996714 C 0.0 **** -0.24
7522 H 91.56101478815454 120.90867068703149 26.58409526518932 H 0.0 **** 0.06
7523 H 91.45525175029452 122.14370003134913 27.86134582402474 H 0.0 **** 0.06
7524 H 91.76970089636369 122.62971195521526 26.178033180723105 H 0.0 **** 0.06
7525 H 93.02484782442609 121.77520399712706 27.107564607538862 H 0.0 **** 0.06
7526 C 74.70507312229559 99.40943114207822 83.12781552180185 C 0.0 **** -0.24
7527 H 75.05428525269542 98.47684964919615 83.57189662836142 H 0.0 **** 0.06
7528 H 75.55968430556426 100.04820712172192 82.90704570373741 H 0.0 **** 0.06
7529 H 74.04005916224473 99.91757169147449 83.82534039646114 H 0.0 **** 0.06
7530 H 74.16641436776634 99.19173389291389 82.20534436946558 H 0.0 **** 0.06
7531 C 157.67517704955497 58.45102901081722 70.50454296694976 C 0.0 **** -0.24
7532 H 158.4903627039448 58.54062882568289 69.7865913090997 H 0.0 **** 0.06
7533 H 157.05916005726692 57.58845145562128 70.24852262895682 H 0.0 **** 0.06
7534 H 157.06501940443468 59.35434025051609 70.47605016763475 H 0.0 **** 0.06
7535 H 158.0850887057931 58.321053940022665 71.5053612522156 H 0.0 **** 0.06
7536 C 1.9075447076101568 100.29007587496388 157.62852336759 C 0.0 **** -0.24
7537 H 1.2888438389786074 99.68972317158104 156.96229052190688 H 0.0 **** 0.06
7538 H 1.2857658606796178 100.71151977665731 158.41899758631155 H 0.0 **** 0.06
7539 H 2.3741806560472014 101.09675661393594 157.06456556650846 H 0.0 **** 0.06
7540 H 2.679697396979492 99.66109540839572 158.0706230623282 H 0.0 **** 0.06
7541 C 49.06511750826252 27.968224103507453 184.6148919303385 C 0.0 **** -0.24
7542 H 48.31841131975307 28.333503358781584 183.90928912704328 H 0.0 **** 0.06
7543 H 49.97837656435598 27.71316353094778 184.0785055658235 H 0.0 **** 0.06
7544 H 48.68117936714452 27.08335712715045 185.12275441823758 H 0.0 **** 0.06
7545 H 49.279241852077575 28.744358125816973 185.3494176954424 H 0.0 **** 0.06
7546 C 20.491390215399754 97.35608780787426 183.3711140450003 C 0.0 **** -0.24
7547 H 20.214728234721726 96.32139775047268 183.16603351567375 H 0.0 **** 0.06
7548 H 20.51082217184789 97.51819579508943 184.44981781159487 H 0.0 **** 0.06
7549 H 19.761191801488472 98.02514016917466 182.9157959383918 H 0.0 **** 0.06
7550 H 21.478726232855834 97.55714761347902 182.95561807475065 H 0.0 **** 0.06
7551 C 34.15217689934356 62.89463161781586 149.63146239042874 C 0.0 **** -0.24
7552 H 33.407852925486935 62.551669712073505 150.34888714105347 H 0.0 **** 0.06
7553 H 33.93147034305733 63.92216890791944 149.34181414679125 H 0.0 **** 0.06
7554 H 34.12952479027078 62.25479395551926 148.74954516033537 H 0.0 **** 0.06
7555 H 35.14204515153058 62.84965978923971 150.08668405681266 H 0.0 **** 0.06
7556 C 53.20868968208731 140.2602785169534 46.59424974168354 C 0.0 **** -0.24
7557 H 52.96005289477756 141.08177145611677 45.92232752645509 H 0.0 **** 0.06
7558 H 54.115386396635756 140.50580176440008 47.14689588390033 H 0.0 **** 0.06
7559 H 53.37151348308333 139.35276839690528 46.01318937859378 H 0.0 **** 0.06
7560 H 52.38821329098727 140.10190399775314 47.292988124003784 H 0.0 **** 0.06
7561 C 117.25358646250913 75.50724894574013 121.37718294857041 C 0.0 **** -0.24
7562 H 116.55020413771979 75.72179095112995 122.18075581821722 H 0.0 **** 0.06
7563 H 116.80254749660133 74.80054010129682 120.6786266575931 H 0.0 **** 0.06
7564 H 118.16296854125153 75.07545869797563 121.79529391866652 H 0.0 **** 0.06
7565 H 117.49772803287118 76.43061154663249 120.85209556572244 H 0.0 **** 0.06
7566 C 160.21294302573898 44.774085555911086 66.36606618139746 C 0.0 **** -0.24
7567 H 161.15534037407622 44.69672685755751 65.82296650694096 H 0.0 **** 0.06
7568 H 159.57098951597268 43.933725537131295 66.10159293672689 H 0.0 **** 0.06
7569 H 159.71736721474744 45.70746442194309 66.10112119903789 H 0.0 **** 0.06
7570 H 160.40978347252434 44.75812628787102 67.43758822047141 H 0.0 **** 0.06
7571 C 170.58928652185674 4.258513904254272 30.202213033888597 C 0.0 **** -0.24
7572 H 169.79998137421364 3.583339140059053 29.871887767124093 H 0.0 **** 0.06
7573 H 171.53941040164545 3.9477442871004484 29.76757154437813 H 0.0 **** 0.06
7574 H 170.6589819069532 4.230015022841457 31.2890919151032 H 0.0 **** 0.06
7575 H 170.3564594812389 5.273565079793457 29.878790602612 H 0.0 **** 0.06
7576 C 62.70328999453595 91.14343865973444 84.34397958054439 C 0.0 **** -0.24
7577 H 63.766642416126516 91.03839464806947 84.13083708453985 H 0.0 **** 0.06
7578 H 62.564398538524756 91.34695511163613 85.40661621884948 H 0.0 **** 0.06
7579 H 62.187040425778534 90.22048501110766 84.07989946334294 H 0.0 **** 0.06
7580 H 62.29566800997959 91.9681652668375 83.75982746751964 H 0.0 **** 0.06
7581 C 53.56909978877792 100.19501165146029 19.56773647247323 C 0.0 **** -0.24
7582 H 54.16419184583873 99.2902288604901 19.44435128191452 H 0.0 **** 0.06
7583 H 52.88097405934167 100.29483241242839 18.728328848608612 H 0.0 **** 0.06
7584 H 54.229879366828186 101.06161048598186 19.60216305981919 H 0.0 **** 0.06
7585 H 53.003331028509876 100.13282502042752 20.497440135581115 H 0.0 **** 0.06
7586 C 120.71061467019882 12.632166689724869 41.365421408690054 C 0.0 **** -0.24
7587 H 120.69338549930052 13.676841551333553 41.67560352667567 H 0.0 **** 0.06
7588 H 120.06642896907056 12.04761488535334 42.02361543632293 H 0.0 **** 0.06
7589 H 121.73076760679749 12.252813622053395 41.423607290604934 H 0.0 **** 0.06
7590 H 120.35039340938675 12.551407231877931 40.339753859855335 H 0.0 **** 0.06
7591 C 44.91626244803322 52.43753964576649 111.57770888698475 C 0.0 **** -0.24
7592 H 45.1920190512989 51.45597044281192 111.1907688567848 H 0.0 **** 0.06
7593 H 43.849345063633365 52.600936366230144 111.42404957978688 H 0.0 **** 0.06
7594 H 45.48229688039437 53.20695716286167 111.05263263630958 H 0.0 **** 0.06
7595 H 45.140864355502686 52.484202006296755 112.64279618110903 H 0.0 **** 0.06
7596 C 106.93594927260578 140.68975324335463 4.050719201154635 C 0.0 **** -0.24
7597 H 107.17930261742315 141.0240362598803 5.059172161747966 H 0.0 **** 0.06
7598 H 106.1425717934212 141.3163094108334 3.642661707227802 H 0.0 **** 0.06
7599 H 106.60135143143164 139.65418911302686 4.082112058293319 H 0.0 **** 0.06
7600 H 107.82100693832321 140.76738749437402 3.419519386219349 H 0.0 **** 0.06
7601 C 90.95833676667444 67.67567763223286 71.8419678357466 C 0.0 **** -0.24
7602 H 90.16632672668324 67.14605311044005 72.37230013603872 H 0.0 **** 0.06
7603 H 91.56829762581249 68.2281879813489 72.55640357020636 H 0.0 **** 0.06
7604 H 90.51479071308329 68.37010456849185 71.12880903274272 H 0.0 **** 0.06
7605 H 91.58137348501278 66.95719085612984 71.31008312685653 H 0.0 **** 0.06
7606 C 60.414735067503386 180.57457559151388 128.23218301913204 C 0.0 **** -0.24
7607 H 60.29270011252851 179.78861786952277 128.9760951382384 H 0.0 **** 0.06
7608 H 60.72131431766016 180.13207316976573 127.28303382267252 H 0.0 **** 0.06
7609 H 61.176996843725746 181.27816403525 128.56751369184252 H 0.0 **** 0.06
7610 H 59.469315105420094 181.1003925130134 128.09981226436173 H 0.0 **** 0.06
7611 C 164.358328098364 111.83489389415759 63.77879957753754 C 0.0 **** -0.24
7612 H 165.34939422867816 112.28789438449523 63.79739624520607 H 0.0 **** 0.06
7613 H 163.87180229444706 111.98589557713798 64.74357600317353 H 0.0 **** 0.06
7614 H 164.45179063103316 110.76668525507567 63.582082950142535 H 0.0 **** 0.06
7615 H 163.7615203091844 112.29853585230792 62.9942054616007 H 0.0 **** 0.06
7616 C 13.190317908059903 129.04419376642772 185.05426192611185 C 0.0 **** -0.24
7617 H 14.004611488990165 129.68545603492743 184.71745334380495 H 0.0 **** 0.06
7618 H 12.562404491240073 129.5930997358496 185.75575414282983 H 0.0 **** 0.06
7619 H 13.602074041968997 128.16303047774852 185.54665253980832 H 0.0 **** 0.06
7620 H 12.592644340681389 128.73396229204263 184.19665705020824 H 0.0 **** 0.06
7621 C 65.10501836917153 99.10052624757155 38.273329831062256 C 0.0 **** -0.24
7622 H 65.87994037520141 98.65452510531118 38.89755915843202 H 0.0 **** 0.06
7623 H 64.24268390487288 98.43306578352322 38.23315236232486 H 0.0 **** 0.06
7624 H 65.49272069200349 99.25475389092391 37.267439652140865 H 0.0 **** 0.06
7625 H 64.80289510313023 100.05792288643006 38.697863188491866 H 0.0 **** 0.06
7626 C 4.320951948345417 104.21374018438564 67.86761423534584 C 0.0 **** -0.24
7627 H 5.062505502816663 104.53532643633929 67.13621901011453 H 0.0 **** 0.06
7628 H 4.827541430302034 103.8486132123511 68.76143903548802 H 0.0 **** 0.06
7629 H 3.7133061924749953 103.41571971599956 67.44182871143137 H 0.0 **** 0.06
7630 H 3.6809702652193153 105.05637545845764 68.13020824679813 H 0.0 **** 0.06
7631 C 106.90677595347785 69.21291402977248 121.70579166194047 C 0.0 **** -0.24
7632 H 107.96719108033278 69.39292927839004 121.53170372513411 H 0.0 **** 0.06
7633 H 106.47697925833626 68.70414184356126 120.84261378910257 H 0.0 **** 0.06
7634 H 106.39691743927341 70.16417189495169 121.85869730522147 H 0.0 **** 0.06
7635 H 106.78535514685603 68.58951750374351 122.59293774851862 H 0.0 **** 0.06
7636 C 47.644218952262975 4.13033073660381 90.9097852215237 C 0.0 **** -0.24
7637 H 47.144782226501945 3.21163805849676 90.6034927758502 H 0.0 **** 0.06
7638 H 48.456347097673074 3.891333754500522 91.59560345868049 H 0.0 **** 0.06
7639 H 46.9279591716745 4.783689543407036 91.40857733680674 H 0.0 **** 0.06
7640 H 48.04564048805301 4.635281268834063 90.03138208853362 H 0.0 **** 0.06
7641 C 101.53545747077902 67.97064387845764 55.46272880822278 C 0.0 **** -0.24
7642 H 102.29681189799766 67.19492235018585 55.38600273757811 H 0.0 **** 0.06
7643 H 100.97092411849093 68.01937332502384 54.53109426561139 H 0.0 **** 0.06
7644 H 102.01354801963953 68.9323804131836 55.648746625357376 H 0.0 **** 0.06
7645 H 100.85983366812894 67.73645817879726 56.28615817941551 H 0.0 **** 0.06
7646 C 89.14810856320696 50.13392209860706 41.57498524213132 C 0.0 **** -0.24
7647 H 88.43980131169997 50.24052404899891 42.396018250928165 H 0.0 **** 0.06
7648 H 88.73309904727557 50.590413388554225 40.67551361624601 H 0.0 **** 0.06
7649 H 89.3355668333648 49.075673032567806 41.39180585909865 H 0.0 **** 0.06
7650 H 90.08305494063552 50.628872272603815 41.83554220776537 H 0.0 **** 0.06
7651 C 14.126730397841683 119.8443895466317 53.84824266434086 C 0.0 **** -0.24
7652 H 14.770257857386746 120.27154759913321 54.617891149808514 H 0.0 **** 0.06
7653 H 13.513050573518903 120.63099412198181 53.41064622091727 H 0.0 **** 0.06
7654 H 13.48371342562907 119.0858285441891 54.2935703190023 H 0.0 **** 0.06
7655 H 14.742472047768402 119.3883048628897 53.073230188671076 H 0.0 **** 0.06
7656 C 2.107059535081362 80.56825792808847 27.265848970114746 C 0.0 **** -0.24
7657 H 2.2492277555036324 81.64171339378775 27.39320649525763 H 0.0 **** 0.06
7658 H 1.2003072315335288 80.25811931300274 27.78655301049588 H 0.0 **** 0.06
7659 H 2.9636467635301003 80.03652108694769 27.680198601183463 H 0.0 **** 0.06
7660 H 2.014376677454436 80.33785939590065 26.20490139965915 H 0.0 **** 0.06
7661 C 146.5002979358402 141.6869753934464 141.15921428369512 C 0.0 **** -0.24
7662 H 147.31336487563976 140.96644202261007 141.07155487520953 H 0.0 **** 0.06
7663 H 145.55398489816548 141.1546242989948 141.26451555127755 H 0.0 **** 0.06
7664 H 146.46993731101855 142.31056206540222 140.26548878402866 H 0.0 **** 0.06
7665 H 146.66381490336443 142.3140413176373 142.03540198060062 H 0.0 **** 0.06
7666 C 87.88073192483019 116.68211380570038 107.4312716944374 C 0.0 **** -0.24
7667 H 87.41137988563035 117.66366560901427 107.36439055689102 H 0.0 **** 0.06
7668 H 87.2557008355799 115.9456780372458 106.92541214946483 H 0.0 **** 0.06
7669 H 87.99256778434865 116.40456964933112 108.47979463919457 H 0.0 **** 0.06
7670 H 88.86124462441414 116.7142900273138 106.95683003739889 H 0.0 **** 0.06
7671 C 150.63917806005776 72.25700492701998 38.231165852019686 C 0.0 **** -0.24
7672 H 150.7627126221298 71.19015475809971 38.03988506460986 H 0.0 **** 0.06
7673 H 150.35157602896805 72.75958854447867 37.30809644828251 H 0.0 **** 0.06
7674 H 151.5794939524441 72.67145969073692 38.59419839341287 H 0.0 **** 0.06
7675 H 149.86333572313487 72.40268133161828 38.98334032433523 H 0.0 **** 0.06
7676 C 27.436664730283383 12.782461054493076 83.98762149656916 C 0.0 **** -0.24
7677 H 26.934658096251013 13.675166294455252 84.3591346575921 H 0.0 **** 0.06
7678 H 28.432046451247743 13.04738806673047 83.63123228787943 H 0.0 **** 0.06
7679 H 26.85866441588243 12.35517693387802 83.16847421489204 H 0.0 **** 0.06
7680 H 27.521252237521395 12.051935605379704 84.79262826904463 H 0.0 **** 0.06
7681 C 55.176281819117165 82.26527601284646 13.859599950619085 C 0.0 **** -0.24
7682 H 55.39736477954328 82.90577016731594 14.713257914620726 H 0.0 **** 0.06
7683 H 55.58832739952341 81.27140142001132 14.035048241416973 H 0.0 **** 0.06
7684 H 55.621637412146754 82.69149138473496 12.961460662985672 H 0.0 **** 0.06
7685 H 54.095965245149515 82.19338432863442 13.730813044560037 H 0.0 **** 0.06
7686 C 61.77960884108947 54.107393600712186 50.67732804512224 C 0.0 **** -0.24
7687 H 61.10169772379672 54.380494705893796 51.48634453463086 H 0.0 **** 0.06
7688 H 61.75931686201015 54.882278993376076 49.909844318101364 H 0.0 **** 0.06
7689 H 61.464063510981816 53.15796805489873 50.244725870684135 H 0.0 **** 0.06
7690 H 62.791460295250644 54.0096335866653 51.06926930450243 H 0.0 **** 0.06
7691 C 71.38586860056691 115.57190993388134 182.47120824937645 C 0.0 **** -0.24
7692 H 72.45960052553811 115.45770414719233 182.32042639022225 H 0.0 **** 0.06
7693 H 70.8644633880629 114.72195961748069 182.02989265891182 H 0.0 **** 0.06
7694 H 71.04856738639236 116.49275015205019 181.99516565411056 H 0.0 **** 0.06
7695 H 71.17160763607944 115.61526250020906 183.53815909622693 H 0.0 **** 0.06
7696 C 62.952929818270434 44.245786485712756 179.65994562329345 C 0.0 **** -0.24
7697 H 62.68894498036421 44.66807651821678 180.62943337082265 H 0.0 **** 0.06
7698 H 62.04362214721891 44.032690686374195 179.09674305214986 H 0.0 **** 0.06
7699 H 63.513624801832194 43.32247442544124 179.80686514911 H 0.0 **** 0.06
7700 H 63.56488189711638 44.95791693798982 179.1075370766133 H 0.0 **** 0.06
7701 C 154.52726505462675 30.35058994807818 176.73768985647803 C 0.0 **** -0.24
7702 H 154.41573198608114 29.734600014240556 177.62941128902403 H 0.0 **** 0.06
7703 H 153.80632647743653 31.167756464153314 176.76748622445842 H 0.0 **** 0.06
7704 H 154.34900031062523 29.742299076171065 175.85064348063239 H 0.0 **** 0.06
7705 H 155.53786956093262 30.75833172691948 176.70107623953814 H 0.0 **** 0.06
7706 C 129.33142991101602 168.221357552369 17.32885232459961 C 0.0 **** -0.24
7707 H 128.8891860902333 167.22687155694751 17.286046607682067 H 0.0 **** 0.06
7708 H 130.11819817693805 168.3014767094987 16.57850841147871 H 0.0 **** 0.06
7709 H 129.75390419203057 168.38886906934295 18.319778026196275 H 0.0 **** 0.06
7710 H 128.56269378013315 168.96961430383888 17.131208698922705 H 0.0 **** 0.06
7711 C 17.378304909846683 161.80369356783797 70.10805328576062 C 0.0 **** -0.24
7712 H 16.90968033273115 162.14963273357077 69.18714208253469 H 0.0 **** 0.06
7713 H 17.451938809222582 162.63263742280034 70.81187605699658 H 0.0 **** 0.06
7714 H 18.37696334847216 161.4247485564723 69.88681041434876 H 0.0 **** 0.06
7715 H 16.77603694091185 161.00728286010042 70.54548059090257 H 0.0 **** 0.06
7716 C 41.964721664415606 172.49999410925557 69.57395439441747 C 0.0 **** -0.24
7717 H 41.36476626579724 172.72532349798064 70.455250900821 H 0.0 **** 0.06
7718 H 41.40375834287232 172.76014999156473 68.67604713624932 H 0.0 **** 0.06
7719 H 42.201324834062746 171.43536492514153 69.55852578356426 H 0.0 **** 0.06
7720 H 42.88856953491262 173.07673591372122 69.60610004860257 H 0.0 **** 0.06
7721 C 92.69378148432783 1.1055148828898211 30.030693960376937 C 0.0 **** -0.24
7722 H 93.40033056938078 1.1287909140150703 30.85976630679636 H 0.0 **** 0.06
7723 H 92.45039729345184 0.07036852147120953 29.789504139042265 H 0.0 **** 0.06
7724 H 93.13995988798449 1.5867885320658672 29.160376850835746 H 0.0 **** 0.06
7725 H 91.78443818649417 1.636111564007308 30.313128544833432 H 0.0 **** 0.06
7726 C 154.59737700603532 41.917261469101575 58.37529347805558 C 0.0 **** -0.24
7727 H 153.7212236452897 41.369550191473024 58.72151738427577 H 0.0 **** 0.06
7728 H 154.3910344547565 42.98751809798712 58.40280492875043 H 0.0 **** 0.06
7729 H 154.832941093067 41.61849135838612 57.35432907081443 H 0.0 **** 0.06
7730 H 155.44483245478324 41.692973042938135 59.02373187039723 H 0.0 **** 0.06
7731 C 159.68149040784454 148.42245479776628 23.788671531014074 C 0.0 **** -0.24
7732 H 159.5280907285045 149.45420863012737 24.101925235526863 H 0.0 **** 0.06
7733 H 160.74898069578452 148.2337696741828 23.672668148812747 H 0.0 **** 0.06
7734 H 159.17697390222466 148.25218165956292 22.837753811604443 H 0.0 **** 0.06
7735 H 159.27339971130243 147.74877703389402 24.54248492287182 H 0.0 **** 0.06
7736 C 18.79827495259434 101.42185540642299 161.19324752537156 C 0.0 **** -0.24
7737 H 18.500837579745365 100.64531425645612 161.8978617542295 H 0.0 **** 0.06
7738 H 18.257800864148834 102.34125130857217 161.41711865716613 H 0.0 **** 0.06
7739 H 18.56454929951019 101.09974635798335 160.1782049361962 H 0.0 **** 0.06
7740 H 19.870173788750577 101.5991454366586 161.2812446528481 H 0.0 **** 0.06
7741 C 185.36282044838876 152.54897298113153 39.802596267421805 C 0.0 **** -0.24
7742 H 186.32554486169866 152.38941650396413 39.31669730152626 H 0.0 **** 0.06
7743 H 184.73286588050433 153.17137719721288 39.16522615833195 H 0.0 **** 0.06
7744 H 185.5168541972601 153.04840118549618 40.75948416738889 H 0.0 **** 0.06
7745 H 184.87502160317044 151.58793631865694 39.96776345827557 H 0.0 **** 0.06
7746 C 59.50732876110976 87.51520973309512 66.51422493708537 C 0.0 **** -0.24
7747 H 59.1341575335253 88.5397377043136 66.52984737041771 H 0.0 **** 0.06
7748 H 58.91728305761717 86.90268031459381 67.1957857463907 H 0.0 **** 0.06
7749 H 60.55106144599108 87.50417309907873 66.8255440609031 H 0.0 **** 0.06
7750 H 59.42574280298709 87.11561323418452 65.50327501798506 H 0.0 **** 0.06
7751 C 104.68081587742988 147.8907868710647 155.75082429625024 C 0.0 **** -0.24
7752 H 105.4982173855975 147.22752563093445 155.46771006526933 H 0.0 **** 0.06
7753 H 105.0578180768595 148.66659995986512 156.41788784498283 H 0.0 **** 0.06
7754 H 103.90734844476414 147.31641675874545 156.2597982108956 H 0.0 **** 0.06
7755 H 104.26258073681153 148.35262226187643 154.85706214919549 H 0.0 **** 0.06
7756 C 13.695965119300013 11.679269586906685 110.0393537286072 C 0.0 **** -0.24
7757 H 14.515080788901145 12.398081320530935 110.08857387808366 H 0.0 **** 0.06
7758 H 12.823119215098018 12.08895486889611 110.5472635137967 H 0.0 **** 0.06
7759 H 13.997735698219884 10.75175422837259 110.52415791400215 H 0.0 **** 0.06
7760 H 13.449888390836179 11.481572316023971 108.99558726988961 H 0.0 **** 0.06
7761 C 113.51156974782396 146.70492016171957 158.1986339552534 C 0.0 **** -0.24
7762 H 112.7693642937615 146.07832858885197 158.69264955625903 H 0.0 **** 0.06
7763 H 113.51554119742082 146.4903033484765 157.12977043485424 H 0.0 **** 0.06
7764 H 114.49763569459998 146.49786087434998 158.6144834040263 H 0.0 **** 0.06
7765 H 113.26375716237487 147.75418142525007 158.35752094117072 H 0.0 **** 0.06
7766 C 92.63609371058466 137.17068544947432 27.074239102862293 C 0.0 **** -0.24
7767 H 93.50142587355386 136.523173460566 26.929826999679335 H 0.0 **** 0.06
7768 H 92.88002125563106 137.94521394690963 27.800699217980423 H 0.0 **** 0.06
7769 H 91.7968373920411 136.57810411582255 27.441547713279192 H 0.0 **** 0.06
7770 H 92.3663640164056 137.63252000900331 26.124779740646716 H 0.0 **** 0.06
7771 C 79.13449648168077 75.72508177838296 158.67234063383324 C 0.0 **** -0.24
7772 H 79.70163900047145 76.47256379181442 159.22785785938152 H 0.0 **** 0.06
7773 H 79.50544768623206 75.67575810833682 157.64837884091995 H 0.0 **** 0.06
7774 H 78.08060526285897 76.00040728641687 158.66516510666253 H 0.0 **** 0.06
7775 H 79.25300464230195 74.7520674276252 159.14915742634918 H 0.0 **** 0.06
7776 C 174.20372036370117 179.21343086311776 44.9508100200525 C 0.0 **** -0.24
7777 H 173.19652885058426 179.3970447058205 45.32408011061088 H 0.0 **** 0.06
7778 H 174.61467885242956 178.32720242064335 45.434928440754376 H 0.0 **** 0.06
7779 H 174.83539395413158 180.0749317404614 45.171500122076935 H 0.0 **** 0.06
7780 H 174.16836058788888 179.05626471349626 43.87291770469457 H 0.0 **** 0.06
7781 C 8.314596119203593 105.3178412142613 52.92560833307887 C 0.0 **** -0.24
7782 H 8.35834883591395 105.22286136248067 51.841636545122796 H 0.0 **** 0.06
7783 H 9.323190778655956 105.26318614948019 53.33608734093397 H 0.0 **** 0.06
7784 H 7.710910459476665 104.50820398075393 53.337282439941774 H 0.0 **** 0.06
7785 H 7.865350348191058 106.27585152119065 53.188864619269566 H 0.0 **** 0.06
7786 C 120.62225682468467 81.6933610671774 49.39151962266028 C 0.0 **** -0.24
7787 H 120.78482074003215 81.76502716579364 48.31627114087836 H 0.0 **** 0.06
7788 H 119.8445930080433 80.9554267501079 49.593161238656364 H 0.0 **** 0.06
7789 H 120.3102810238225 82.66490349263287 49.77615946051746 H 0.0 **** 0.06
7790 H 121.54783129840409 81.3889391590779 49.88034532151792 H 0.0 **** 0.06
7791 C 101.88272367365768 173.43632901142263 14.859956549347814 C 0.0 **** -0.24
7792 H 101.08343968612228 172.72501752502328 14.655945768468506 H 0.0 **** 0.06
7793 H 101.4588537107894 174.432016335483 14.990633139941458 H 0.0 **** 0.06
7794 H 102.58243040991697 173.4462811009971 14.024938720956193 H 0.0 **** 0.06
7795 H 102.40698062161071 173.14174930835557 15.769440376100512 H 0.0 **** 0.06
7796 C 136.874162875154 39.71284407668618 141.6043424908031 C 0.0 **** -0.24
7797 H 137.111920912419 39.50657094575874 142.6473102964818 H 0.0 **** 0.06
7798 H 136.43054733031624 40.706280630242006 141.52281040249306 H 0.0 **** 0.06
7799 H 136.16761266519052 38.96835125622685 141.23875723342087 H 0.0 **** 0.06
7800 H 137.78568816803687 39.67192242477242 141.00889526597808 H 0.0 **** 0.06
7801 C 69.53076981145028 142.3965644408251 100.43657539699184 C 0.0 **** -0.24
7802 H 69.3276450557214 142.4492560214028 99.36694401409015 H 0.0 **** 0.06
7803 H 70.60236506285757 142.50568621073535 100.60844587373056 H 0.0 **** 0.06
7804 H 69.19551560960079 141.4344632542451 100.82304178952343 H 0.0 **** 0.06
7805 H 68.99740500091409 143.1998211721983 100.94639889890972 H 0.0 **** 0.06
7806 C 115.24897105425644 146.44758515870828 103.7607675236819 C 0.0 **** -0.24
7807 H 116.11614933658636 145.8025318228809 103.89953122629645 H 0.0 **** 0.06
7808 H 115.28496176816107 146.89546762029764 102.76759667393254 H 0.0 **** 0.06
7809 H 115.25803127557275 147.23507735199468 104.51521457524213 H 0.0 **** 0.06
7810 H 114.33758659910568 145.85874451896336 103.86103427775224 H 0.0 **** 0.06
7811 C 46.17775013271762 63.6208407298211 136.27689091947366 C 0.0 **** -0.24
7812 H 46.141696959006026 63.571315264449595 137.3657099077655 H 0.0 **** 0.06
7813 H 46.13637435963727 62.61133419314902 135.86649600095063 H 0.0 **** 0.06
7814 H 47.10579473228745 64.1010604956134 135.96579354766192 H 0.0 **** 0.06
7815 H 45.3295939911398 64.19751774851684 135.9111108216399 H 0.0 **** 0.06
7816 C 71.82030127601759 26.51540975539234 120.72045650095912 C 0.0 **** -0.24
7817 H 72.19092342067852 27.081242964258138 121.57580402956286 H 0.0 **** 0.06
7818 H 70.76335020921252 26.293291314169892 120.86282282515039 H 0.0 **** 0.06
7819 H 72.37978577739199 25.5839851049833 120.63248160794014 H 0.0 **** 0.06
7820 H 71.95042229467023 27.104236474027516 119.81213772777808 H 0.0 **** 0.06
7821 C 97.28473198928855 55.84882165503278 56.84249659418842 C 0.0 **** -0.24
7822 H 96.97202330144604 56.01581467645033 55.811715835465904 H 0.0 **** 0.06
7823 H 97.40023472061814 54.779287560063054 57.01812205258315 H 0.0 **** 0.06
7824 H 96.53003533342287 56.24931937468379 57.51940123959005 H 0.0 **** 0.06
7825 H 98.2347259869427 56.35192590508525 57.01963736737305 H 0.0 **** 0.06
7826 C 181.9589122886929 115.72247093791982 59.08535047228996 C 0.0 **** -0.24
7827 H 182.64665995947334 115.25983890140013 59.79242407211699 H 0.0 **** 0.06
7828 H 180.9319205194939 115.53341677923252 59.40005164581058 H 0.0 **** 0.06
7829 H 182.1190262397518 115.29990516364533 58.093549561567215 H 0.0 **** 0.06
7830 H 182.13795523615812 116.79779541354513 59.05445890809034 H 0.0 **** 0.06
7831 C 78.7122617848463 141.9421183152565 173.00794601947382 C 0.0 **** -0.24
7832 H 79.2685634309463 141.05257923568212 172.71440038677997 H 0.0 **** 0.06
7833 H 78.4732703683452 142.52979973075196 172.1216881473386 H 0.0 **** 0.06
7834 H 79.31693048434158 142.54078357686268 173.68951923131146 H 0.0 **** 0.06
7835 H 77.78921592356062 141.64543252371595 173.50709656701184 H 0.0 **** 0.06
7836 C 99.65333609242737 184.19615250266708 34.22686511377833 C 0.0 **** -0.24
7837 H 99.97250292410308 185.22430206513081 34.053007698750946 H 0.0 **** 0.06
7838 H 99.52585701884004 184.03153210580325 35.29660553271404 H 0.0 **** 0.06
7839 H 100.40771646810737 183.5112143060054 33.84066405091937 H 0.0 **** 0.06
7840 H 98.70633322642288 184.01899771540837 33.71574658600866 H 0.0 **** 0.06
7841 C 180.57944860506274 36.347038423777605 130.69393856782483 C 0.0 **** -0.24
7842 H 180.86067078902664 37.241175122182085 131.24960392751802 H 0.0 **** 0.06
7843 H 179.96157954530895 35.70762251349595 131.32454104653766 H 0.0 **** 0.06
7844 H 181.4778785944274 35.80635927558802 130.3966172409614 H 0.0 **** 0.06
7845 H 180.01804079884113 36.63383074366186 129.805396630291 H 0.0 **** 0.06
7846 C 184.21896839621246 9.964106941920988 0.9743995229134086 C 0.0 **** -0.24
7847 H 184.51593318096096 10.993538557275485 0.7750084033015838 H 0.0 **** 0.06
7848 H 183.89600371051893 9.874363168463304 2.01178047533962 H 0.0 **** 0.06
7849 H 185.06659742406526 9.301260922783996 0.7996981901706093 H 0.0 **** 0.06
7850 H 183.39925357770935 9.68771374705949 0.31257194879194117 H 0.0 **** 0.06
7851 C 38.660791200591234 27.400830182261288 164.04337081938195 C 0.0 **** -0.24
7852 H 37.83827764462785 26.789734919099644 164.4144926091196 H 0.0 **** 0.06
7853 H 38.56840344084122 27.516818820374837 162.96355856812448 H 0.0 **** 0.06
7854 H 39.608296801115785 26.916480482154796 164.27795310902474 H 0.0 **** 0.06
7855 H 38.627022417371165 28.38174652474008 164.51870879467538 H 0.0 **** 0.06
7856 C 184.19530515162873 122.21102431369651 159.7895575321173 C 0.0 **** -0.24
7857 H 183.1760652439191 121.83094145152764 159.84427816153507 H 0.0 **** 0.06
7858 H 184.71478227762665 121.99258458790221 160.72333427192882 H 0.0 **** 0.06
7859 H 184.17363343535078 123.28863868183377 159.62936715863168 H 0.0 **** 0.06
7860 H 184.7181487012751 121.73119658717728 158.96246423125535 H 0.0 **** 0.06
7861 C 74.70494080799493 171.49455965172743 184.37542371750698 C 0.0 **** -0.24
7862 H 75.20143841415728 172.2672597943144 183.78760741568271 H 0.0 **** 0.06
7863 H 73.6598495771816 171.7659306520948 184.52482741414553 H 0.0 **** 0.06
7864 H 75.1992656011381 171.40140433941158 185.3426778012821 H 0.0 **** 0.06
7865 H 74.7619743021018 170.54381407113618 183.8450564922857 H 0.0 **** 0.06
7866 C 167.99650173985015 121.71321769749471 47.83759441457157 C 0.0 **** -0.24
7867 H 168.49531487275948 121.48816376834367 46.89495633510455 H 0.0 **** 0.06
7868 H 167.00682987752012 122.12417878093294 47.63497904515542 H 0.0 **** 0.06
7869 H 168.5853419137785 122.44124363794754 48.395397998110255 H 0.0 **** 0.06
7870 H 167.89810416760307 120.79902968627215 48.423716912325204 H 0.0 **** 0.06
7871 C 149.51081558966507 73.31360419599238 77.8655702575882 C 0.0 **** -0.24
7872 H 149.35577320237155 73.65316886533124 78.8900438180741 H 0.0 **** 0.06
7873 H 149.62792104730113 74.17672552585945 77.21073346101541 H 0.0 **** 0.06
7874 H 148.64923313085706 72.72704536468507 77.543626450695 H 0.0 **** 0.06
7875 H 150.40775444529487 72.69640360730018 77.81966304689641 H 0.0 **** 0.06
7876 C 51.61756156973115 106.27387814327203 106.63025820609344 C 0.0 **** -0.24
7877 H 50.73905514362025 105.68853358300781 106.90102851242257 H 0.0 **** 0.06
7878 H 52.430604681076375 105.60209271145665 106.35366533902346 H 0.0 **** 0.06
7879 H 51.923073166572976 106.88409744518431 107.48053489350748 H 0.0 **** 0.06
7880 H 51.37712109377921 106.92123924326022 105.78708601716723 H 0.0 **** 0.06
7881 C 172.44862541759062 46.43353925341199 29.744527912953515 C 0.0 **** -0.24
7882 H 171.9195069121272 45.554272392861435 30.112250312513765 H 0.0 **** 0.06
7883 H 172.71217784424488 46.28666309739077 28.696694959532522 H 0.0 **** 0.06
7884 H 173.3553952978428 46.58208979653648 30.330944561452213 H 0.0 **** 0.06
7885 H 171.80702560277584 47.30924523632979 29.83973326635686 H 0.0 **** 0.06
7886 C 81.39527888334594 67.39848343953645 32.34140213931619 C 0.0 **** -0.24
7887 H 80.77106746836382 66.59090522086183 32.72589002168806 H 0.0 **** 0.06
7888 H 81.96864968425841 67.835141005548 33.160091028218545 H 0.0 **** 0.06
7889 H 80.76200023319531 68.16291947514026 31.8923486502556 H 0.0 **** 0.06
7890 H 82.07771180588182 67.0028170741221 31.589157632763744 H 0.0 **** 0.06
7891 C 145.7098019646348 16.629944497028816 157.31683161970028 C 0.0 **** -0.24
7892 H 146.5690142481258 16.001448686159847 157.55314424190954 H 0.0 **** 0.06
7893 H 144.88896235119245 16.0060887814536 156.96456934145476 H 0.0 **** 0.06
7894 H 145.98491805875875 17.34320627211042 156.5403226881562 H 0.0 **** 0.06
7895 H 145.3985683827769 17.170114718995393 158.21122591985005 H 0.0 **** 0.06
7896 C 183.99618062496268 68.08091052432115 146.5221004993656 C 0.0 **** -0.24
7897 H 182.90839786055153 68.14553301493032 146.52453737186835 H 0.0 **** 0.06
7898 H 184.38508230780408 68.46774622613532 147.46448895741477 H 0.0 **** 0.06
7899 H 184.39369160541818 68.66928005742864 145.69558694425484 H 0.0 **** 0.06
7900 H 184.29834674398091 67.03975117097542 146.40539907992027 H 0.0 **** 0.06
7901 C 79.88574701906866 53.46788101589806 37.75678407436345 C 0.0 **** -0.24
7902 H 78.83135374344893 53.73357614957641 37.8320919572422 H 0.0 **** 0.06
7903 H 80.47852092847405 54.16202466408248 38.35200003207575 H 0.0 **** 0.06
7904 H 80.20099094012132 53.52049703158377 36.714960109112354 H 0.0 **** 0.06
7905 H 80.03135023087533 52.45357997075672 38.130319204148236 H 0.0 **** 0.06
7906 C 87.22500972036664 164.8814726868117 128.9868048055859 C 0.0 **** -0.24
7907 H 86.31373781325664 164.32251114622244 128.77540741471165 H 0.0 **** 0.06
7908 H 87.20468952611873 165.2298539408527 130.02013001595424 H 0.0 **** 0.06
7909 H 87.2904821061046 165.73747827985196 128.31601338702848 H 0.0 **** 0.06
7910 H 88.0907761902755 164.23626301742678 128.83808270918598 H 0.0 **** 0.06
7911 C 176.12170396263937 109.292667580621 88.4949988041189 C 0.0 **** -0.24
7912 H 176.81247388864574 108.5972001070311 88.97072376904543 H 0.0 **** 0.06
7913 H 175.339945064052 109.56891610602229 89.20200525426395 H 0.0 **** 0.06
7914 H 175.67226020635877 108.81843458531118 87.6221873960755 H 0.0 **** 0.06
7915 H 176.6629658562166 110.18664596325983 88.18306994884324 H 0.0 **** 0.06
7916 C 176.0376386759006 32.24355463656269 149.4014409110895 C 0.0 **** -0.24
7917 H 176.36124114506265 31.407934249644427 150.02185558613203 H 0.0 **** 0.06
7918 H 175.14099871568692 32.69005794606679 149.83169891296825 H 0.0 **** 0.06
7919 H 175.8189879432657 31.88564481761307 148.3952193704033 H 0.0 **** 0.06
7920 H 176.83073419986238 32.9904842797136 149.35709025957152 H 0.0 **** 0.06
7921 C 49.83887186448999 47.26580750774667 103.48759169933169 C 0.0 **** -0.24
7922 H 50.79103080280191 47.42795716960626 102.98266477357612 H 0.0 **** 0.06
7923 H 49.296724630680984 46.46155562330233 102.99017371802586 H 0.0 **** 0.06
7924 H 49.24721806161267 48.18096724144209 103.4509471545565 H 0.0 **** 0.06
7925 H 50.02074842073043 46.99306515514502 104.5275007866062 H 0.0 **** 0.06
7926 C 126.49868301574925 61.38073413134809 39.56435168404738 C 0.0 **** -0.24
7927 H 126.11538924201368 60.63900547581278 40.26487851484012 H 0.0 **** 0.06
7928 H 127.50347757540082 61.67878527554085 39.863698924569576 H 0.0 **** 0.06
7929 H 125.84451909090284 62.252326285379894 39.56418628517986 H 0.0 **** 0.06
7930 H 126.53066483498851 60.950899910355076 38.562440457389584 H 0.0 **** 0.06
7931 C 10.138231703242553 89.56280015995638 88.71483374490369 C 0.0 **** -0.24
7932 H 10.621044896422774 89.66658256214403 87.74244748978516 H 0.0 **** 0.06
7933 H 10.64300552358992 88.78435525024229 89.28824922476231 H 0.0 **** 0.06
7934 H 9.092647420422878 89.29125496545028 88.5744412833266 H 0.0 **** 0.06
7935 H 10.199056402565304 90.50844997961617 89.25289519303657 H 0.0 **** 0.06
7936 C 19.970110152680746 13.464015718839335 63.34013529948855 C 0.0 **** -0.24
7937 H 20.348364477229687 12.933533114489933 64.21359635692986 H 0.0 **** 0.06
7938 H 19.633653738390365 14.456957004583188 63.63539790025675 H 0.0 **** 0.06
7939 H 19.13510324367723 12.908954201830397 62.91261508066043 H 0.0 **** 0.06
7940 H 20.76430581402623 13.553837523111298 62.59839094974487 H 0.0 **** 0.06
7941 C 45.51277827620089 157.74580900646916 74.0210222437886 C 0.0 **** -0.24
7942 H 44.72256291536418 158.29007217521234 74.53861828453296 H 0.0 **** 0.06
7943 H 45.37250207085094 156.67507884117467 74.16840900256904 H 0.0 **** 0.06
7944 H 46.48121073236834 158.04354580649465 74.42257140675855 H 0.0 **** 0.06
7945 H 45.47406445800483 157.97490387863954 72.95599682296057 H 0.0 **** 0.06
7946 C 65.31104459866839 123.50626905497397 125.72613426105545 C 0.0 **** -0.24
7947 H 65.69168632487431 124.52710451375181 125.69689046983774 H 0.0 **** 0.06
7948 H 66.13128898555664 122.80813191672495 125.5567262777592 H 0.0 **** 0.06
7949 H 64.55787379613159 123.37745038999766 124.94815297463145 H 0.0 **** 0.06
7950 H 64.86348468708478 123.3135374287733 126.70085473125272 H 0.0 **** 0.06
7951 C 36.1707989425536 13.967693870157149 53.23372285005087 C 0.0 **** -0.24
7952 H 36.5726658354785 13.415931257936961 52.38368438427864 H 0.0 **** 0.06
7953 H 36.15712099541177 13.321369809110337 54.110943727990616 H 0.0 **** 0.06
7954 H 35.156661993966395 14.295317335624986 53.00653468820465 H 0.0 **** 0.06
7955 H 36.79723430340202 14.837542137501998 53.431634690956685 H 0.0 **** 0.06
7956 C 11.165868798190537 139.26981375141747 28.071735957512956 C 0.0 **** -0.24
7957 H 11.941330493742491 138.50364377153142 28.05624092225206 H 0.0 **** 0.06
7958 H 11.403729476954823 140.0436836380572 27.341681803760025 H 0.0 **** 0.06
7959 H 11.114046685468807 139.71280059684932 29.06705325523376 H 0.0 **** 0.06
7960 H 10.204434824624123 138.81907533952818 27.825129048629307 H 0.0 **** 0.06
7961 C 158.1710925865992 167.83781854035797 26.641280943221176 C 0.0 **** -0.24
7962 H 157.99372926697026 168.77781524822745 27.16295400447082 H 0.0 **** 0.06
7963 H 158.82902942254393 168.0140957981503 25.78958860324674 H 0.0 **** 0.06
7964 H 157.22223702198207 167.43284000864776 26.290094584142338 H 0.0 **** 0.06
7965 H 158.64047604065155 167.12754310110188 27.321164985378388 H 0.0 **** 0.06
7966 C 119.19526292068616 114.36082999458112 8.771342069505124 C 0.0 **** -0.24
7967 H 119.5041297566126 115.3047453784131 8.322404006336562 H 0.0 **** 0.06
7968 H 118.96887761011124 113.64138933711506 7.983442182108547 H 0.0 **** 0.06
7969 H 118.3083418838084 114.52266223029311 9.382377843932282 H 0.0 **** 0.06
7970 H 120.00153601066677 113.97438850952615 9.395525591291893 H 0.0 **** 0.06
7971 C 15.370824825152653 19.317266454976618 167.20226166860064 C 0.0 **** -0.24
7972 H 16.07184246922671 18.482628165318573 167.1643066215868 H 0.0 **** 0.06
7973 H 14.618954158980415 19.1247888518935 167.9675709104955 H 0.0 **** 0.06
7974 H 14.883196936136756 19.424840850385834 166.23241157683069 H 0.0 **** 0.06
7975 H 15.909313066277122 20.232911156744848 167.4423460411539 H 0.0 **** 0.06
7976 C 53.42541322246473 7.12306724678222 149.48099379240244 C 0.0 **** -0.24
7977 H 52.853599863841566 7.6953567320441465 148.75044701551883 H 0.0 **** 0.06
7978 H 53.38905323751965 6.064732718232108 149.22264646559552 H 0.0 **** 0.06
7979 H 52.9960261383398 7.2707254263292285 150.47290871107904 H 0.0 **** 0.06
7980 H 54.460926114071185 7.463037646012218 149.4791132445117 H 0.0 **** 0.06
7981 C 49.893844586478465 25.164429550459772 118.1623803366482 C 0.0 **** -0.24
7982 H 49.78138485507512 24.94547363571604 117.10086327966593 H 0.0 **** 0.06
7983 H 49.95741992384002 24.23033439494759 118.72098913798925 H 0.0 **** 0.06
7984 H 49.03387583711506 25.737513496303933 118.50818214508962 H 0.0 **** 0.06
7985 H 50.80394877277885 25.74430263833446 118.3201395458521 H 0.0 **** 0.06
7986 C 3.5338721396690858 160.9344527544872 19.007430172188812 C 0.0 **** -0.24
7987 H 2.713377108713729 160.2874758804139 18.699183258472388 H 0.0 **** 0.06
7988 H 3.1398130471713444 161.7715313532575 19.585693321982156 H 0.0 **** 0.06
7989 H 4.048960977139387 161.3133490843601 18.125204916565764 H 0.0 **** 0.06
7990 H 4.232812129394631 160.36685049852082 19.621582374276905 H 0.0 **** 0.06
7991 C 69.02357395925266 91.90776096810758 134.8797590397574 C 0.0 **** -0.24
7992 H 68.32050469625358 91.29321968062995 134.3166027509675 H 0.0 **** 0.06
7993 H 69.10783057011943 91.5237222454494 135.8966884678769 H 0.0 **** 0.06
7994 H 68.66473229243441 92.93626670846466 134.9079183311618 H 0.0 **** 0.06
7995 H 69.99962410606958 91.87659648667862 134.39688201874895 H 0.0 **** 0.06
7996 C 84.38212028709137 54.40733990792165 165.99873785385665 C 0.0 **** -0.24
7997 H 84.82529421621621 53.459502232626335 165.69228232985628 H 0.0 **** 0.06
7998 H 84.2939983015143 54.43151919830484 167.08555903330483 H 0.0 **** 0.06
7999 H 83.39347639073145 54.50785483770545 165.55147803569724 H 0.0 **** 0.06
8000 H 85.01781598351533 55.2281758058856 165.667434726762 H 0.0 **** 0.06
8001 C 19.374734004284917 182.60320538961054 177.1779709287936 C 0.0 **** -0.24
8002 H 18.59318543825099 182.4672944191891 176.43031832595565 H 0.0 **** 0.06
8003 H 19.110695835147602 182.05324974384072 178.08209593862355 H 0.0 **** 0.06
8004 H 19.47269106707956 183.66259872020777 177.41252693298026 H 0.0 **** 0.06
8005 H 20.3201939379515 182.22710344326552 176.78775535890907 H 0.0 **** 0.06
8006 C 175.12311941576968 64.97534561775109 111.78027075716689 C 0.0 **** -0.24
8007 H 174.2106281516932 65.37274015581465 112.22581835437644 H 0.0 **** 0.06
8008 H 175.4401138070781 64.08957690921818 112.33038138602662 H 0.0 **** 0.06
8009 H 175.90641224514295 65.73171929527552 111.82471797099346 H 0.0 **** 0.06
8010 H 174.93248755548962 64.70968701379863 110.74085681493695 H 0.0 **** 0.06
8011 C 89.85431946919 56.884260143554116 106.75676455578794 C 0.0 **** -0.24
8012 H 89.75193633282579 56.30962551277065 105.83682104118161 H 0.0 **** 0.06
8013 H 90.90592906988978 56.93922289868095 107.03587864449305 H 0.0 **** 0.06
8014 H 89.29112237162506 56.39750334602678 107.55278729698553 H 0.0 **** 0.06
8015 H 89.46626717766564 57.89162771160409 106.60140883530225 H 0.0 **** 0.06
8016 C 35.17373597300707 12.184243336645721 74.58513925769752 C 0.0 **** -0.24
8017 H 35.2534553784603 13.110127503403476 75.15485558326685 H 0.0 **** 0.06
8018 H 34.18084791799964 11.75685332542804 74.72420199522246 H 0.0 **** 0.06
8019 H 35.92649102112773 11.477533894728168 74.93355847350249 H 0.0 **** 0.06
8020 H 35.33492071806583 12.393969851661979 73.52759226737624 H 0.0 **** 0.06
8021 C 42.097537901470986 128.39832607409176 102.79321575178871 C 0.0 **** -0.24
8022 H 41.76203437260375 128.05684342985467 101.81346355180308 H 0.0 **** 0.06
8023 H 42.75007795964035 127.64600090933465 103.23716811611014 H 0.0 **** 0.06
8024 H 41.23327141113373 128.55539319538718 103.43892755118883 H 0.0 **** 0.06
8025 H 42.64429251160382 129.33481898724443 102.68414798827125 H 0.0 **** 0.06
8026 C 78.34233779254645 160.06397634374878 41.384714666281525 C 0.0 **** -0.24
8027 H 77.82780260864939 160.9356683966689 40.98048469461526 H 0.0 **** 0.06
8028 H 77.61112165883601 159.3712158890769 41.80233447384387 H 0.0 **** 0.06
8029 H 79.03253535064592 160.37957577862323 42.16741365239642 H 0.0 **** 0.06
8030 H 78.89881170761737 159.5696665342962 40.588302736637274 H 0.0 **** 0.06
8031 C 148.49056836370806 143.96433893922492 105.0180556881049 C 0.0 **** -0.24
8032 H 147.75812100023893 143.8490107945681 104.21846099861612 H 0.0 **** 0.06
8033 H 148.6254080635169 145.02397418090206 105.23593359542618 H 0.0 **** 0.06
8034 H 149.44052808083842 143.5321206107463 104.70425446786474 H 0.0 **** 0.06
8035 H 148.13575435229984 143.45137550827607 105.91209925800526 H 0.0 **** 0.06
8036 C 22.550937858423907 122.6251235183442 61.54386478909947 C 0.0 **** -0.24
8037 H 22.879059256596832 123.05107445003705 60.595753238235716 H 0.0 **** 0.06
8038 H 21.505425466156936 122.32537021609039 61.464560396501156 H 0.0 **** 0.06
8039 H 22.657356720374835 123.3701668803327 62.3324259987038 H 0.0 **** 0.06
8040 H 23.16121802193824 121.7544666523981 61.7822952570574 H 0.0 **** 0.06
8041 C 64.89922124998975 168.91661498503618 3.089924943743341 C 0.0 **** -0.24
8042 H 65.93971841032536 168.6092596108618 3.192422184171022 H 0.0 **** 0.06
8043 H 64.8242581154824 169.69784179458307 2.3342890959128866 H 0.0 **** 0.06
8044 H 64.53636183913432 169.29693336425947 4.044968057622945 H 0.0 **** 0.06
8045 H 64.29587959224631 168.06006833241884 2.7879977046409508 H 0.0 **** 0.06
8046 C 69.31188785266643 13.228575934123846 19.051330660587553 C 0.0 **** -0.24
8047 H 69.21967026404056 13.809638554009119 18.133227433927004 H 0.0 **** 0.06
8048 H 69.88518399063851 13.796716704616195 19.78367003423162 H 0.0 **** 0.06
8049 H 69.82430917698639 12.289928862396657 18.836294691166017 H 0.0 **** 0.06
8050 H 68.31917751882067 13.018187213302909 19.448913526435064 H 0.0 **** 0.06
8051 C 71.26102365400766 155.75351896964446 93.46263298780303 C 0.0 **** -0.24
8052 H 71.8590100940815 154.92110728613187 93.83399989193134 H 0.0 **** 0.06
8053 H 70.20772635501123 155.4740280488811 93.46792216706069 H 0.0 **** 0.06
8054 H 71.56876207412762 155.99677392314342 92.44598632381536 H 0.0 **** 0.06
8055 H 71.4098966680466 156.6221943892251 94.10444231976868 H 0.0 **** 0.06
8056 C 6.315106720454629 81.43549519663361 75.87627142811833 C 0.0 **** -0.24
8057 H 6.027278640476723 82.43872179028051 75.56213967460765 H 0.0 **** 0.06
8058 H 6.122186994551193 80.73241304968349 75.06558538941913 H 0.0 **** 0.06
8059 H 5.734207059468126 81.1490836357105 76.75230929008708 H 0.0 **** 0.06
8060 H 7.376091821690707 81.42286894815334 76.12389520101031 H 0.0 **** 0.06
8061 C 18.838030681015738 120.73554997445484 50.36274881363185 C 0.0 **** -0.24
8062 H 19.026369960457316 121.20825621668655 51.326431580610006 H 0.0 **** 0.06
8063 H 18.09864187817888 119.943758537544 50.48529633655164 H 0.0 **** 0.06
8064 H 19.765490297841097 120.31142238919091 49.97855380695684 H 0.0 **** 0.06
8065 H 18.461183103461252 121.47965078867225 49.660572011916614 H 0.0 **** 0.06
8066 C 98.76495760097971 128.92659116125196 111.30183604419172 C 0.0 **** -0.24
8067 H 98.46488246109244 128.65472595056798 112.31415990393744 H 0.0 **** 0.06
8068 H 98.92521033513223 130.0041516839928 111.2486873629433 H 0.0 **** 0.06
8069 H 97.98065701054024 128.64029487704659 110.60176078939814 H 0.0 **** 0.06
8070 H 99.68851261966138 128.408512708996 111.04536931324564 H 0.0 **** 0.06
8071 C 161.9290851459177 142.59300894376184 138.96991024424 C 0.0 **** -0.24
8072 H 161.4783236538624 143.38834276850943 139.5620187680987 H 0.0 **** 0.06
8073 H 163.01480057042224 142.69117315367515 138.9955264898481 H 0.0 **** 0.06
8074 H 161.5813595354749 142.6655945255177 137.94001482923636 H 0.0 **** 0.06
8075 H 161.6417586851023 141.62644831074937 139.38295430185394 H 0.0 **** 0.06
8076 C 161.52809036941295 120.81455127465661 69.34897406656313 C 0.0 **** -0.24
8077 H 162.16859830819158 121.60980066146722 68.9670599833621 H 0.0 **** 0.06
8078 H 161.92787171513413 120.4499046065924 70.29489585662714 H 0.0 **** 0.06
8079 H 161.4972460483167 119.99683136654617 68.62801208759302 H 0.0 **** 0.06
8080 H 160.5210690063431 121.20178046614903 69.50366694776858 H 0.0 **** 0.06
8081 C 110.1315863560745 174.93015149653667 163.12251376015197 C 0.0 **** -0.24
8082 H 109.07665271359026 175.11571149091213 163.32551344525402 H 0.0 **** 0.06
8083 H 110.60498780613561 175.85231280969845 162.7874840464961 H 0.0 **** 0.06
8084 H 110.22382272127486 174.17059713735205 162.34585424359562 H 0.0 **** 0.06
8085 H 110.6202595248176 174.57988319714553 164.03229727442093 H 0.0 **** 0.06
8086 C 93.70433160012556 80.17372160423412 96.62885254006268 C 0.0 **** -0.24
8087 H 94.55721898334161 80.827418345149 96.4489997655126 H 0.0 **** 0.06
8088 H 93.95131195047361 79.46181546351512 97.41722792482501 H 0.0 **** 0.06
8089 H 93.46236670163091 79.63304846473348 95.71431392064024 H 0.0 **** 0.06
8090 H 92.84593420449897 80.77173513070662 96.93485269785212 H 0.0 **** 0.06
8091 C 71.84056475595241 57.49147312668036 54.22666701175467 C 0.0 **** -0.24
8092 H 71.8979729106511 58.4886690442266 54.66210581257678 H 0.0 **** 0.06
8093 H 72.84750018334529 57.11649122801256 54.04332856795156 H 0.0 **** 0.06
8094 H 71.29151377081166 57.5373890894371 53.286298415256624 H 0.0 **** 0.06
8095 H 71.32409609881779 56.82425831259181 54.91660242680359 H 0.0 **** 0.06
8096 C 109.2435645987547 113.54519394223432 107.10771016715267 C 0.0 **** -0.24
8097 H 110.15625918900149 114.13446782964427 107.20479916141187 H 0.0 **** 0.06
8098 H 108.43717423086825 114.18288118652116 106.74542310173769 H 0.0 **** 0.06
8099 H 108.97310336572157 113.13312099297725 108.07958719343696 H 0.0 **** 0.06
8100 H 109.41001530678078 112.73247726171671 106.40087700760245 H 0.0 **** 0.06
8101 C 72.05761317493864 171.00608363288754 81.73908359795809 C 0.0 **** -0.24
8102 H 72.34589651091815 172.0555051952211 81.80063412913933 H 0.0 **** 0.06
8103 H 71.60611545096597 170.81062509368397 80.76664536457378 H 0.0 **** 0.06
8104 H 71.338694250133 170.78098057903853 82.52709601362926 H 0.0 **** 0.06
8105 H 72.94073661246608 170.37975155820277 81.86358050376793 H 0.0 **** 0.06
8106 C 77.39289436006354 22.374635963196653 152.78347600244388 C 0.0 **** -0.24
8107 H 77.02442495332468 22.973391698679336 151.95039963529675 H 0.0 **** 0.06
8108 H 77.16029353631122 21.324095711254813 152.60659914745167 H 0.0 **** 0.06
8109 H 76.91484391500845 22.703479174170127 153.7060258761927 H 0.0 **** 0.06
8110 H 78.47242387083521 22.498460119327348 152.869852960106 H 0.0 **** 0.06
8111 C 119.70862349811898 117.13078634261761 35.88271356475377 C 0.0 **** -0.24
8112 H 118.74624981861797 116.73893402444962 35.554189572423354 H 0.0 **** 0.06
8113 H 119.85215991258633 118.13193212243921 35.47449325167179 H 0.0 **** 0.06
8114 H 120.50665283240812 116.47695281243197 35.530223462896004 H 0.0 **** 0.06
8115 H 119.7304114823724 117.17540879467164 36.97176704996707 H 0.0 **** 0.06
8116 C 21.457800576521322 151.13214649659142 150.14503922943703 C 0.0 **** -0.24
8117 H 21.957305815199533 151.6230155060492 149.30832688000288 H 0.0 **** 0.06
8118 H 21.608348485701498 151.7190064270527 151.0512462238316 H 0.0 **** 0.06
8119 H 21.8755148783639 150.1348580467259 150.2826686985994 H 0.0 **** 0.06
8120 H 20.39136350591633 151.05360030996155 149.93497537858966 H 0.0 **** 0.06
8121 C 107.34502700543753 126.78288799353727 92.01350764604678 C 0.0 **** -0.24
8122 H 108.36260270339413 126.92869930914365 91.65088645914244 H 0.0 **** 0.06
8123 H 107.15513736908535 125.71815507493857 92.14549278674139 H 0.0 **** 0.06
8124 H 106.63978083528788 127.19071555209256 91.28899201615678 H 0.0 **** 0.06
8125 H 107.22192533550394 127.2959197125456 92.96776066199078 H 0.0 **** 0.06
8126 C 53.63106201461619 30.00830499672952 145.26429715332253 C 0.0 **** -0.24
8127 H 54.32118557284889 29.16723499492673 145.18881787862347 H 0.0 **** 0.06
8128 H 53.89829715842302 30.622235687672145 146.12429996937138 H 0.0 **** 0.06
8129 H 52.61450252310033 29.633632838576034 145.38603436806653 H 0.0 **** 0.06
8130 H 53.69146837846267 30.607943943696 144.35583935142654 H 0.0 **** 0.06
8131 C 167.6513080010912 92.15253683104429 132.86223999587708 C 0.0 **** -0.24
8132 H 166.7145171420618 92.07593516018737 132.31085136870996 H 0.0 **** 0.06
8133 H 168.16446036156475 93.07310165935719 132.58094573845568 H 0.0 **** 0.06
8134 H 168.2839277469164 91.29683997551156 132.6245731453851 H 0.0 **** 0.06
8135 H 167.44354988142993 92.16440096108609 133.93189188012298 H 0.0 **** 0.06
8136 C 148.64302331680923 126.20594631861532 35.04004215684168 C 0.0 **** -0.24
8137 H 148.0001262689261 125.32703366433866 35.01421087938384 H 0.0 **** 0.06
8138 H 148.04672007298393 127.08585348868475 35.284468449778146 H 0.0 **** 0.06
8139 H 149.11092571212035 126.3425893000336 34.0647696700035 H 0.0 **** 0.06
8140 H 149.41576801744858 126.06906302093468 35.797301018516336 H 0.0 **** 0.06
8141 C 171.50795310613213 3.6117563947844644 83.21018555398753 C 0.0 **** -0.24
8142 H 171.27172080464493 3.0806880538834776 84.13179667485812 H 0.0 **** 0.06
8143 H 171.87926463252865 4.608932018381665 83.44995195960614 H 0.0 **** 0.06
8144 H 170.60889862865727 3.6956048893650575 82.5990023909346 H 0.0 **** 0.06
8145 H 172.27101429515605 3.062204668985771 82.66002661596364 H 0.0 **** 0.06
8146 C 150.0954780179659 60.33194808981162 86.11045082666742 C 0.0 **** -0.24
8147 H 150.83560219012196 61.13187720098131 86.09808218778356 H 0.0 **** 0.06
8148 H 149.2273102271537 60.63066170551406 85.52231372997441 H 0.0 **** 0.06
8149 H 149.78861815524553 60.13623203242031 87.13800307274524 H 0.0 **** 0.06
8150 H 150.53051682774748 59.42761421412928 85.6833655043204 H 0.0 **** 0.06
8151 C 36.640283248042266 68.14896570565541 50.600145440411154 C 0.0 **** -0.24
8152 H 36.84610399128927 68.24725572387686 49.53427525263152 H 0.0 **** 0.06
8153 H 37.48487646747377 68.53533411610874 51.1707390879597 H 0.0 **** 0.06
8154 H 36.48626668410503 67.09819567250318 50.845933158473315 H 0.0 **** 0.06
8155 H 35.74303154070682 68.71550153532634 50.84933390524918 H 0.0 **** 0.06
8156 C 174.94180301835422 165.46499011926147 34.85512901160371 C 0.0 **** -0.24
8157 H 174.84366714403686 165.5218465771713 35.93956207790177 H 0.0 **** 0.06
8158 H 174.54422746861187 166.37501159074424 34.405976517468446 H 0.0 **** 0.06
8159 H 174.38729800551124 164.60333589771085 34.48573692487355 H 0.0 **** 0.06
8160 H 175.99462307658658 165.35951796301677 34.59191630182903 H 0.0 **** 0.06
8161 C 178.80054275598508 45.26195021044552 49.540297725931566 C 0.0 **** -0.24
8162 H 178.77211853183843 44.54907083316681 50.3641480831369 H 0.0 **** 0.06
8163 H 179.8118198703906 45.31023666899489 49.136255174943145 H 0.0 **** 0.06
8164 H 178.5064977457923 46.24738698141749 49.903163118651165 H 0.0 **** 0.06
8165 H 178.11150366109985 44.94256072552878 48.75853635457412 H 0.0 **** 0.06
8166 C 71.11065467777644 175.31079098071382 56.53962741285915 C 0.0 **** -0.24
8167 H 70.53298207888172 174.57236580389488 57.0969316620039 H 0.0 **** 0.06
8168 H 71.00040207946888 176.2874121738832 57.01138771506302 H 0.0 **** 0.06
8169 H 70.74486497439672 175.35841015694353 55.51417450884611 H 0.0 **** 0.06
8170 H 72.16167262827197 175.0237715000933 56.53752454728766 H 0.0 **** 0.06
8171 C 52.41941717223571 122.12885300738664 67.03126593190797 C 0.0 **** -0.24
8172 H 51.66866709472478 122.47234246458537 66.3199237743082 H 0.0 **** 0.06
8173 H 53.36083890270763 121.95335556146968 66.50899380159062 H 0.0 **** 0.06
8174 H 52.08296276310713 121.20162352654772 67.49542570077679 H 0.0 **** 0.06
8175 H 52.566038292338845 122.8878894395959 67.79959938926011 H 0.0 **** 0.06
8176 C 162.98419619559235 49.671189740821006 141.99300716286263 C 0.0 **** -0.24
8177 H 162.81131758586835 48.92373886734276 141.21867548801328 H 0.0 **** 0.06
8178 H 163.04915757991935 50.65845494865232 141.53479017246786 H 0.0 **** 0.06
8179 H 163.9168825368102 49.44766903561276 142.51074265696826 H 0.0 **** 0.06
8180 H 162.1595689758198 49.65391965305696 142.70421107644768 H 0.0 **** 0.06
8181 C 161.1631139861403 35.10270540677435 135.73813249954043 C 0.0 **** -0.24
8182 H 161.40342410189237 34.0543842215706 135.91851302189235 H 0.0 **** 0.06
8183 H 161.6075859369369 35.41958060952315 134.79445026280558 H 0.0 **** 0.06
8184 H 161.56037435891844 35.710659124859845 136.5497683714156 H 0.0 **** 0.06
8185 H 160.0808944387898 35.22308134904691 135.68867698519068 H 0.0 **** 0.06
8186 C 73.14401326848501 138.59242298385567 84.22504541478297 C 0.0 **** -0.24
8187 H 72.20228551934721 138.2077783322635 84.61792036653068 H 0.0 **** 0.06
8188 H 73.1070571840383 139.680644439223 84.1940997083247 H 0.0 **** 0.06
8189 H 73.30245216412746 138.20532864522914 83.218706783056 H 0.0 **** 0.06
8190 H 73.96359164025885 138.27375989520402 84.87034963023787 H 0.0 **** 0.06
8191 C 49.034229166078546 183.1646960911766 64.46282520272175 C 0.0 **** -0.24
8192 H 48.46997108854674 182.24902388354457 64.28776070542207 H 0.0 **** 0.06
8193 H 49.87113143626192 182.95347102929847 65.12977270408993 H 0.0 **** 0.06
8194 H 48.38454219919748 183.910039439169 64.92051776048345 H 0.0 **** 0.06
8195 H 49.41266656136429 183.54475289972336 63.514151754208825 H 0.0 **** 0.06
8196 C 143.6647164194723 132.49668451090253 185.32961245859155 C 0.0 **** -0.24
8197 H 142.92447636059492 132.08027837297703 184.64645146316377 H 0.0 **** 0.06
8198 H 144.585028142081 131.9155234653678 185.26595279930285 H 0.0 **** 0.06
8199 H 143.28037503307218 132.4586497309893 186.3490845901316 H 0.0 **** 0.06
8200 H 143.86871291373416 133.53184412311424 185.05610675907877 H 0.0 **** 0.06
8201 C 116.85811609268116 82.93791086162183 161.82826945143168 C 0.0 **** -0.24
8202 H 116.72539010748962 84.01824964372561 161.7709781764589 H 0.0 **** 0.06
8203 H 116.24606057063916 82.53800464415906 162.6371411568959 H 0.0 **** 0.06
8204 H 117.90762162240019 82.71062561702449 162.02126680869787 H 0.0 **** 0.06
8205 H 116.55682869793496 82.48384513964179 160.88428026282554 H 0.0 **** 0.06
8206 C 88.00644759337017 2.5087889231131157 53.15824580029113 C 0.0 **** -0.24
8207 H 88.35993386461418 3.4811681696520225 53.500429094523895 H 0.0 **** 0.06
8208 H 88.77476040446213 2.0390367746518905 52.5430679894024 H 0.0 **** 0.06
8209 H 87.09887795788735 2.6398756211478656 52.56927976663121 H 0.0 **** 0.06
8210 H 87.79284457372513 1.8769188559877819 54.01974989553281 H 0.0 **** 0.06
8211 C 30.303022613033036 71.90711657854581 142.17198815613938 C 0.0 **** -0.24
8212 H 29.798537177925184 72.86876364184548 142.26822092209585 H 0.0 **** 0.06
8213 H 31.128410237015274 71.85764631634243 142.88163405866072 H 0.0 **** 0.06
8214 H 30.68776041631287 71.79851591178726 141.158023128546 H 0.0 **** 0.06
8215 H 29.595560570314873 71.10423295199098 142.379626560377 H 0.0 **** 0.06
8216 C 64.3061667341002 16.166112489256406 107.89790948037496 C 0.0 **** -0.24
8217 H 64.88211271235514 16.564030719437824 108.73399003851317 H 0.0 **** 0.06
8218 H 64.67751709435476 16.592778806882038 106.96564066158031 H 0.0 **** 0.06
8219 H 63.25537463072612 16.42863741300239 108.02366321899676 H 0.0 **** 0.06
8220 H 64.40875657411618 15.08193331783486 107.86911399491514 H 0.0 **** 0.06
8221 C 48.185653685609736 59.755685405440914 114.19992240582538 C 0.0 **** -0.24
8222 H 49.06897994034381 59.74341898218967 113.56167432104128 H 0.0 **** 0.06
8223 H 48.48406112526777 59.58922482655149 115.23516839033901 H 0.0 **** 0.06
8224 H 47.501011388481174 58.967150822148255 113.88707658696187 H 0.0 **** 0.06
8225 H 47.68973036244239 60.72243864624576 114.11638452205695 H 0.0 **** 0.06
8226 C 91.32268125657019 131.38123168094046 136.51404062707508 C 0.0 **** -0.24
8227 H 92.33893495595403 131.77323769742657 136.53914120977709 H 0.0 **** 0.06
8228 H 90.64354131739908 132.10253041075322 136.96766539299773 H 0.0 **** 0.06
8229 H 91.28210518956176 130.44374384829962 137.06891585397506 H 0.0 **** 0.06
8230 H 91.02672320728966 131.20310420699758 135.47986954968223 H 0.0 **** 0.06
8231 C 50.899868921453304 91.19073489884953 53.683032581397555 C 0.0 **** -0.24
8232 H 50.6048184131059 90.23400557739289 54.114287230930174 H 0.0 **** 0.06
8233 H 50.01039440756439 91.78875872365568 53.484208631829844 H 0.0 **** 0.06
8234 H 51.438895939931996 91.01921820240663 52.75132862740317 H 0.0 **** 0.06
8235 H 51.54520008952986 91.72139654652618 54.38363966261012 H 0.0 **** 0.06
8236 C 3.357052601634649 126.80449841374651 87.28965514039031 C 0.0 **** -0.24
8237 H 3.7180732584641305 127.83115578257356 87.23359195437935 H 0.0 **** 0.06
8238 H 3.7564032267331697 126.32719490415188 88.18518840626116 H 0.0 **** 0.06
8239 H 3.686011239620143 126.25533542002891 86.40758622156629 H 0.0 **** 0.06
8240 H 2.2682245478902416 126.80370829593487 87.33287771948311 H 0.0 **** 0.06
8241 C 105.4041934943536 2.9937165597008644 163.59438798886322 C 0.0 **** -0.24
8242 H 105.2018585224122 3.867597687014211 164.21343781800658 H 0.0 **** 0.06
8243 H 106.45337085738619 2.7124267165138463 163.69567125001507 H 0.0 **** 0.06
8244 H 105.19133420680798 3.2312230866867466 162.5523553967953 H 0.0 **** 0.06
8245 H 104.77219537379166 2.16608045788621 163.91609626788602 H 0.0 **** 0.06
8246 C 87.61655693150247 100.23356204839529 143.3590037830711 C 0.0 **** -0.24
8247 H 88.43998107608466 99.75030488375675 142.83310022243583 H 0.0 **** 0.06
8248 H 87.20879221694342 101.03181781302031 142.7379063162375 H 0.0 **** 0.06
8249 H 87.97949813467208 100.65161037051179 144.29737450946493 H 0.0 **** 0.06
8250 H 86.83686395382828 99.49970000911865 143.5641494444897 H 0.0 **** 0.06
8251 C 28.373980628216188 49.53914076033499 104.6020930199465 C 0.0 **** -0.24
8252 H 27.729481386234 48.69832648540114 104.85713699244639 H 0.0 **** 0.06
8253 H 28.106587259401763 49.91392806406691 103.61251042914779 H 0.0 **** 0.06
8254 H 29.413162870012357 49.21158017531491 104.597657618641 H 0.0 **** 0.06
8255 H 28.245657841055646 50.33206438960795 105.33832988559294 H 0.0 **** 0.06
8256 C 163.91086181825494 73.29701471621371 81.08548021932734 C 0.0 **** -0.24
8257 H 164.61828309314524 72.4990048110933 80.85778586436822 H 0.0 **** 0.06
8258 H 164.15387652667914 73.72950799131168 82.0565609608102 H 0.0 **** 0.06
8259 H 162.90013142485816 72.88977773444613 81.11096501695135 H 0.0 **** 0.06
8260 H 163.97313399884354 74.06718321814272 80.31779475327858 H 0.0 **** 0.06
8261 C 74.53346666088675 92.52187604600891 71.55275558833226 C 0.0 **** -0.24
8262 H 74.95407447441676 92.00120601754963 72.41308177853418 H 0.0 **** 0.06
8263 H 73.62766420403477 93.04787056438852 71.85389182382586 H 0.0 **** 0.06
8264 H 74.29258621280121 91.79811954337197 70.77308864789399 H 0.0 **** 0.06
8265 H 75.26160874559912 93.23814262830263 71.17115675555446 H 0.0 **** 0.06
8266 C 162.00480327353836 89.72542354764312 83.04868885163403 C 0.0 **** -0.24
8267 H 161.67748615793568 89.9589327143621 82.03548978856246 H 0.0 **** 0.06
8268 H 162.48080724238366 88.74425498252617 83.05977323849153 H 0.0 **** 0.06
8269 H 161.1422360551209 89.71891106649065 83.71528149496517 H 0.0 **** 0.06
8270 H 162.71747448728019 90.4795543676592 83.38297139225317 H 0.0 **** 0.06
8271 C 110.77025072621377 60.82275637047138 168.65757596243094 C 0.0 **** -0.24
8272 H 111.3856214319536 61.648647784706554 168.3009225920565 H 0.0 **** 0.06
8273 H 109.91253917288249 61.218304944852775 169.20387500216356 H 0.0 **** 0.06
8274 H 111.36064236623012 60.18824712666685 169.31779340250603 H 0.0 **** 0.06
8275 H 110.42086764376107 60.23678823694104 167.8071665408646 H 0.0 **** 0.06
8276 C 176.50428721914508 111.97227178609371 129.27513901273937 C 0.0 **** -0.24
8277 H 176.135009740069 112.48958513651506 128.39049254861538 H 0.0 **** 0.06
8278 H 177.42082214019675 112.45172870083796 129.62002767221458 H 0.0 **** 0.06
8279 H 176.71045600032852 110.93082539701918 129.02691687210836 H 0.0 **** 0.06
8280 H 175.7521105023663 112.01649284007969 130.0626376113658 H 0.0 **** 0.06
8281 C 185.00252863433136 75.88334681275148 128.69816685798958 C 0.0 **** -0.24
8282 H 184.62494851848294 75.03651186952874 129.27225938306492 H 0.0 **** 0.06
8283 H 185.91846231639994 76.25472357101944 129.15993108961806 H 0.0 **** 0.06
8284 H 184.2549605291554 76.67653093188113 128.6855475910511 H 0.0 **** 0.06
8285 H 185.21336891327903 75.56456216625008 127.67761941832647 H 0.0 **** 0.06
8286 C 129.20274028479434 146.94294409859577 77.52419860898557 C 0.0 **** -0.24
8287 H 128.55805853338057 146.36865082208348 78.1892933595056 H 0.0 **** 0.06
8288 H 130.06097089827517 147.3167449214794 78.08275077862069 H 0.0 **** 0.06
8289 H 128.64343585015848 147.78339431970423 77.11217875615405 H 0.0 **** 0.06
8290 H 129.54864178563338 146.3033410464869 76.71164801220351 H 0.0 **** 0.06
8291 C 47.016791618727154 24.931085834786103 90.56578703646095 C 0.0 **** -0.24
8292 H 47.23499086329252 25.56416841408526 91.4254921520302 H 0.0 **** 0.06
8293 H 47.03026224335679 25.535170776991734 89.65802147547801 H 0.0 **** 0.06
8294 H 46.03174716713417 24.47985832545659 90.68830865456842 H 0.0 **** 0.06
8295 H 47.769090468119145 24.146793502876804 90.4916837004639 H 0.0 **** 0.06
8296 C 179.0144983431946 42.469111010578246 95.59168714337845 C 0.0 **** -0.24
8297 H 179.26128055749325 41.59524923777563 94.98910976873803 H 0.0 **** 0.06
8298 H 179.9243680675778 43.03148570187632 95.80548657596357 H 0.0 **** 0.06
8299 H 178.55660329445493 42.147929661748336 96.52719610980385 H 0.0 **** 0.06
8300 H 178.3159245464372 43.10289942293113 95.04411221937328 H 0.0 **** 0.06
8301 C 67.54857317060757 30.02487039890275 67.83384589655198 C 0.0 **** -0.24
8302 H 66.89690494558675 30.842636611045407 68.14305995322232 H 0.0 **** 0.06
8303 H 68.58931903541495 30.326632304791644 67.95097042865108 H 0.0 **** 0.06
8304 H 67.35543032174081 29.781625078414663 66.7893848397597 H 0.0 **** 0.06
8305 H 67.35165034131848 29.150045328423857 68.45334638328303 H 0.0 **** 0.06
8306 C 4.759927213629908 164.59271017675198 145.6846531507537 C 0.0 **** -0.24
8307 H 5.013154556237737 164.77067063970074 144.63999946415473 H 0.0 **** 0.06
8308 H 4.327860559036367 165.49717535850957 146.11283594307247 H 0.0 **** 0.06
8309 H 5.661581146395008 164.32423259664387 146.23620130502673 H 0.0 **** 0.06
8310 H 4.038036195774566 163.77840366921293 145.7497119091869 H 0.0 **** 0.06
8311 C 42.978160050319445 132.53702097931142 62.54216095030195 C 0.0 **** -0.24
8312 H 43.00547901510413 131.61056700786372 61.968038933268815 H 0.0 **** 0.06
8313 H 43.13061096415325 133.38422050295281 61.87263120651673 H 0.0 **** 0.06
8314 H 43.7658458795363 132.52103022880908 63.29489508270103 H 0.0 **** 0.06
8315 H 42.00858369370002 132.6316601839266 63.032710144258246 H 0.0 **** 0.06
8316 C 30.876175316657182 29.902651896374167 111.93306598032176 C 0.0 **** -0.24
8317 H 31.12699819877305 30.89633337590736 112.30459978557856 H 0.0 **** 0.06
8318 H 29.832340199318693 29.683319885550105 112.15818169904476 H 0.0 **** 0.06
8319 H 31.515741885450566 29.16296754620599 112.41489274917838 H 0.0 **** 0.06
8320 H 31.030594607600207 29.86885542337214 110.85513517778215 H 0.0 **** 0.06
8321 C 56.917610130089 127.3010286535121 178.3089873520783 C 0.0 **** -0.24
8322 H 56.85839214627714 127.86401563684512 179.24113663271237 H 0.0 **** 0.06
8323 H 56.71963484021677 126.24814445471372 178.50861700823117 H 0.0 **** 0.06
8324 H 57.91450090331273 127.40926110826234 177.88225807853632 H 0.0 **** 0.06
8325 H 56.177281491952556 127.68293230086073 177.6060695239167 H 0.0 **** 0.06
8326 C 9.963324255039538 7.389589346352452 117.50849491085206 C 0.0 **** -0.24
8327 H 10.256189956984628 7.781435078793692 116.53482045429108 H 0.0 **** 0.06
8328 H 10.617739564175366 7.801190957511508 118.27721273453464 H 0.0 **** 0.06
8329 H 10.046909963962491 6.303515958491587 117.50387423583639 H 0.0 **** 0.06
8330 H 8.932124445497152 7.674210474810593 117.7190255361014 H 0.0 **** 0.06
8331 C 46.60682424841758 110.0801339180013 74.12795986793282 C 0.0 **** -0.24
8332 H 45.67779398410909 109.52523979533369 74.26297716991792 H 0.0 **** 0.06
8333 H 46.46182650594733 111.11210724098332 74.44783653760652 H 0.0 **** 0.06
8334 H 46.89074494732478 110.0612034923199 73.07604113337362 H 0.0 **** 0.06
8335 H 47.39391664836012 109.62069851688842 74.72548979847556 H 0.0 **** 0.06
8336 C 43.86068891983746 120.10211400608357 143.92072572275126 C 0.0 **** -0.24
8337 H 43.08540884930835 120.21383120518892 143.16197841900274 H 0.0 **** 0.06
8338 H 43.91209408639554 119.0600871782144 144.23710519956927 H 0.0 **** 0.06
8339 H 43.62127308231334 120.73053515395405 144.77824380870223 H 0.0 **** 0.06
8340 H 44.821817214003715 120.40381169411428 143.50503923317393 H 0.0 **** 0.06
8341 C 29.61693412493318 14.467799789114295 24.92799246419196 C 0.0 **** -0.24
8342 H 30.165529244882293 14.664342667168285 25.849296790529394 H 0.0 **** 0.06
8343 H 28.689504200203544 13.945706102451943 25.162005849863533 H 0.0 **** 0.06
8344 H 30.22629733037958 13.84912149182935 24.26843121882854 H 0.0 **** 0.06
8345 H 29.3890976393499 15.41133954844502 24.433366756998623 H 0.0 **** 0.06
8346 C 89.68970283236511 18.80260516416498 24.729128674349738 C 0.0 **** -0.24
8347 H 89.03231056937177 18.48173306976919 25.53655721556578 H 0.0 **** 0.06
8348 H 89.81183242748416 17.98787170111487 24.014920632782946 H 0.0 **** 0.06
8349 H 90.66205878952015 19.07623204296182 25.138506962686563 H 0.0 **** 0.06
8350 H 89.25217351179286 19.665345277507967 24.226050179542057 H 0.0 **** 0.06
8351 C 6.469336352719303 117.19733692183365 82.65890825588406 C 0.0 **** -0.24
8352 H 7.338761062312109 116.74922466346817 83.14017891465494 H 0.0 **** 0.06
8353 H 5.560499951521429 116.83184654730718 83.13834394282685 H 0.0 **** 0.06
8354 H 6.457858228991171 116.92586035623862 81.6034140184666 H 0.0 **** 0.06
8355 H 6.520231036350047 118.28151376736793 82.75412714661724 H 0.0 **** 0.06
8356 C 120.67089880072012 173.02705332875786 170.52445529795386 C 0.0 **** -0.24
8357 H 121.60009243666713 172.6488404043129 170.950746906608 H 0.0 **** 0.06
8358 H 120.70135499123268 172.9247336069748 169.4387451574646 H 0.0 **** 0.06
8359 H 120.55085128376567 174.07714117740065 170.78720121766023 H 0.0 **** 0.06
8360 H 119.8314834959022 172.45533285342927 170.9199979672762 H 0.0 **** 0.06
8361 C 125.33551983440601 28.903456348021138 9.781777588551648 C 0.0 **** -0.24
8362 H 124.60815801568644 29.712007662251636 9.845188066727587 H 0.0 **** 0.06
8363 H 125.20839087400553 28.372656628794232 8.837473990009755 H 0.0 **** 0.06
8364 H 125.18298534731558 28.21280540845224 10.610886666353906 H 0.0 **** 0.06
8365 H 126.3434660129205 29.316644397608556 9.833299725304045 H 0.0 **** 0.06
8366 C 114.30744459154091 167.0911671176674 62.114176090606946 C 0.0 **** -0.24
8367 H 113.43446339275 166.5593352419824 61.7352142759878 H 0.0 **** 0.06
8368 H 113.98519658358744 168.00112469703714 62.62101808224379 H 0.0 **** 0.06
8369 H 114.96361713481015 167.3498439751176 61.28296537896229 H 0.0 **** 0.06
8370 H 114.84435553489548 166.4541049412283 62.81635396164526 H 0.0 **** 0.06
8371 C 51.083879912530676 115.15823450121472 103.32684329107549 C 0.0 **** -0.24
8372 H 50.00306395249771 115.29429523113977 103.28299453055807 H 0.0 **** 0.06
8373 H 51.56870991953758 115.89776207819158 102.68998209987463 H 0.0 **** 0.06
8374 H 51.338420091209656 114.1566987747576 102.98003808611479 H 0.0 **** 0.06
8375 H 51.42333951671989 115.28432855113009 104.35537518332326 H 0.0 **** 0.06
8376 C 168.65143036035366 31.79781957174754 7.474761108579926 C 0.0 **** -0.24
8377 H 169.40826782107962 31.672286582263723 8.250079061937711 H 0.0 **** 0.06
8378 H 168.89133936064528 32.673824187353944 6.871428721579306 H 0.0 **** 0.06
8379 H 167.67474520032147 31.932876009593315 7.9409855770719275 H 0.0 **** 0.06
8380 H 168.63151652288465 30.912935973521144 6.8402339074804885 H 0.0 **** 0.06
8381 C 17.212155862099394 109.1785610506759 127.81216410306963 C 0.0 **** -0.24
8382 H 17.590373155667493 108.34021119092971 128.39666349597405 H 0.0 **** 0.06
8383 H 16.582638038004262 109.8065911860666 128.44339611094273 H 0.0 **** 0.06
8384 H 16.62746431066799 108.80180410790597 126.973361777361 H 0.0 **** 0.06
8385 H 18.05123464457853 109.76585506699446 127.43642889193355 H 0.0 **** 0.06
8386 C 4.93010494383438 124.27252135973987 32.68027756908327 C 0.0 **** -0.24
8387 H 5.867668633863957 123.7796325096179 32.93697440537565 H 0.0 **** 0.06
8388 H 5.13664708200028 125.13587664362132 32.04631194859776 H 0.0 **** 0.06
8389 H 4.430923005797354 124.60130024700578 33.59156467524892 H 0.0 **** 0.06
8390 H 4.287100370096141 123.57381726468469 32.145247603644634 H 0.0 **** 0.06
8391 C 24.798493238144886 165.98090026349075 52.22724699970104 C 0.0 **** -0.24
8392 H 24.921641385800513 166.29174312366322 53.265392292340934 H 0.0 **** 0.06
8393 H 24.360454696583815 166.79743759553682 51.65287656623053 H 0.0 **** 0.06
8394 H 24.141651648322068 165.11272876541062 52.184203856633175 H 0.0 **** 0.06
8395 H 25.7710455605457 165.72284829702124 51.808512575228434 H 0.0 **** 0.06
8396 C 67.13973868639988 115.76201319727893 69.91148602679027 C 0.0 **** -0.24
8397 H 66.69939202187106 115.05687225342383 69.2062999270066 H 0.0 **** 0.06
8398 H 66.76238703066477 115.5568199499658 70.91305919493914 H 0.0 **** 0.06
8399 H 66.87334594684226 116.77833935412151 69.62294765736021 H 0.0 **** 0.06
8400 H 68.2242018797857 115.65428610051843 69.90227682783677 H 0.0 **** 0.06
8401 C 79.44817165383938 168.93817439192665 52.28944833821669 C 0.0 **** -0.24
8402 H 80.34037248468897 169.50474912918506 52.556777942731856 H 0.0 **** 0.06
8403 H 78.76587698123735 168.91306313361855 53.139038100478956 H 0.0 **** 0.06
8404 H 79.7320008863442 167.9202770921361 52.02055349123134 H 0.0 **** 0.06
8405 H 78.95653957546976 169.41400723452543 51.441887527115114 H 0.0 **** 0.06
8406 C 179.02237854752946 159.70015528196774 120.61768572686071 C 0.0 **** -0.24
8407 H 178.15713320411925 160.35068682326016 120.49410762098046 H 0.0 **** 0.06
8408 H 179.9189350548309 160.21954491291834 120.28153224102323 H 0.0 **** 0.06
8409 H 178.88307910897868 158.79524051870095 120.02688010595631 H 0.0 **** 0.06
8410 H 179.12922538010275 159.43365657690146 121.66943549295337 H 0.0 **** 0.06
8411 C 106.01194788111341 178.91939678115858 157.94296640122448 C 0.0 **** -0.24
8412 H 105.47034031446192 179.7436475385487 158.40544695129242 H 0.0 **** 0.06
8413 H 105.32483237926782 178.09638910273534 157.749857679406 H 0.0 **** 0.06
8414 H 106.80365173991994 178.5834605273935 158.61220042774477 H 0.0 **** 0.06
8415 H 106.4500046091289 179.25511234813928 157.00239117644367 H 0.0 **** 0.06
8416 C 0.28960737159658834 114.08518619753663 26.64503769317821 C 0.0 **** -0.24
8417 H -0.5265283610015317 114.80548522266797 26.584167698674207 H 0.0 **** 0.06
8418 H -0.07414907545613403 113.0995438433822 26.35430626060085 H 0.0 **** 0.06
8419 H 0.6649897288018849 114.04707748143541 27.66638098058263 H 0.0 **** 0.06
8420 H 1.0924834860858041 114.38892562714646 25.97349345754435 H 0.0 **** 0.06
8421 C 34.727309252803764 33.99299076032791 177.94611777529096 C 0.0 **** -0.24
8422 H 34.54054591161142 35.053553514794444 178.1138212455642 H 0.0 **** 0.06
8423 H 35.793262402134644 33.79063244891216 178.05263242937644 H 0.0 **** 0.06
8424 H 34.404877816803264 33.721747458005964 176.9404879123951 H 0.0 **** 0.06
8425 H 34.1704139820707 33.4063912855197 178.67616918079278 H 0.0 **** 0.06
8426 C 63.65919258721625 74.0328647794982 37.59967930785302 C 0.0 **** -0.24
8427 H 63.01534986009693 73.46890007024581 36.92407458936469 H 0.0 **** 0.06
8428 H 63.82715597535767 75.0301907391264 37.1920402310848 H 0.0 **** 0.06
8429 H 64.61362293502337 73.51783198912983 37.70623579811783 H 0.0 **** 0.06
8430 H 63.17885239771657 74.1138761314096 38.575199090767626 H 0.0 **** 0.06
8431 C 53.09530873705468 132.20517776794753 74.12319761725534 C 0.0 **** -0.24
8432 H 53.88756365662478 131.59365232214145 73.69176265518195 H 0.0 **** 0.06
8433 H 52.77505727820977 131.76819371537874 75.0695391667291 H 0.0 **** 0.06
8434 H 52.25027682594515 132.24279634748086 73.435688143562 H 0.0 **** 0.06
8435 H 53.469963643827185 133.21372100282986 74.29671878568384 H 0.0 **** 0.06
8436 C 50.88284126680338 135.77018153219365 93.85803994671785 C 0.0 **** -0.24
8437 H 50.44079951832265 136.1677695479765 92.94477097671397 H 0.0 **** 0.06
8438 H 51.8023903572053 135.23688796827616 93.61396240997253 H 0.0 **** 0.06
8439 H 50.18055690547024 135.08504425411905 94.33293883102105 H 0.0 **** 0.06
8440 H 51.10817652392507 136.59072914213152 94.53971217073273 H 0.0 **** 0.06
8441 C 20.066374579548437 17.51633381913689 52.94970875813064 C 0.0 **** -0.24
8442 H 20.41553426881154 18.149926353831233 53.76458442754958 H 0.0 **** 0.06
8443 H 20.92067489841625 17.17376816644932 52.364834301018874 H 0.0 **** 0.06
8444 H 19.393408286867412 18.087212051103734 52.30940586652736 H 0.0 **** 0.06
8445 H 19.53694675504292 16.656541399854206 53.35937755044776 H 0.0 **** 0.06
8446 C 165.43815822858275 60.91435048631757 134.81896341757255 C 0.0 **** -0.24
8447 H 164.87275499700118 61.24072377742945 135.69216788287792 H 0.0 **** 0.06
8448 H 164.9841789378657 60.01168131837882 134.40994808466417 H 0.0 **** 0.06
8449 H 166.4677866764062 60.70441361012949 135.11155728817522 H 0.0 **** 0.06
8450 H 165.42767705475651 61.7011441067293 134.06544083753084 H 0.0 **** 0.06
8451 C 128.68961284175026 125.12187065237454 175.7496212561582 C 0.0 **** -0.24
8452 H 129.41847090226884 124.89243367828028 176.52727797907104 H 0.0 **** 0.06
8453 H 127.7163910291087 125.30246453527748 176.20639310711056 H 0.0 **** 0.06
8454 H 128.61650617090424 124.27978675656631 175.0604706761943 H 0.0 **** 0.06
8455 H 129.00727927039213 126.01000171094368 175.2047234776013 H 0.0 **** 0.06
8456 C 171.72764949416424 0.7333733609864339 67.42416655119911 C 0.0 **** -0.24
8457 H 171.20342568236404 1.596909588290913 67.01319821350836 H 0.0 **** 0.06
8458 H 171.0564947957137 0.1798832807732822 68.08096976926217 H 0.0 **** 0.06
8459 H 172.59495616666797 1.071382050562022 67.98969602005721 H 0.0 **** 0.06
8460 H 172.05445994174295 0.08682574700134182 66.60977937284247 H 0.0 **** 0.06
8461 C 62.26432094441344 114.99406699931751 133.01013263030353 C 0.0 **** -0.24
8462 H 63.25342846033223 115.40787667549802 133.2073209813966 H 0.0 **** 0.06
8463 H 62.3571388710605 113.9400804731701 132.7492253950686 H 0.0 **** 0.06
8464 H 61.80298903725884 115.53438380125237 132.18335334057315 H 0.0 **** 0.06
8465 H 61.64505929860951 115.0958686186255 133.90130646632855 H 0.0 **** 0.06
8466 C 89.62171263048621 47.97403342251151 83.52386226643166 C 0.0 **** -0.24
8467 H 88.89832854677873 48.78607335017519 83.59206027090627 H 0.0 **** 0.06
8468 H 90.61275882656481 48.386364890476 83.33262007095523 H 0.0 **** 0.06
8469 H 89.3417252629147 47.30615215675428 82.70976335956682 H 0.0 **** 0.06
8470 H 89.63350278058898 47.419480527265236 84.4619856235077 H 0.0 **** 0.06
8471 C 57.07241905185113 45.39968790711174 166.28677595741303 C 0.0 **** -0.24
8472 H 56.61935166053429 45.612358809497806 167.25537463786236 H 0.0 **** 0.06
8473 H 57.72566616972047 44.53172013025251 166.37426593374465 H 0.0 **** 0.06
8474 H 57.65449165154841 46.26173203335651 165.9611783954381 H 0.0 **** 0.06
8475 H 56.28918100008566 45.19339147687637 165.55763585457402 H 0.0 **** 0.06
8476 C 2.254158095230437 179.87609110100482 55.63099251462393 C 0.0 **** -0.24
8477 H 1.5765331684239072 179.0334013364824 55.48885238220316 H 0.0 **** 0.06
8478 H 2.5754447583196125 179.91041946995094 56.67203372808132 H 0.0 **** 0.06
8479 H 1.738011334584904 180.80285458560667 55.37836560904151 H 0.0 **** 0.06
8480 H 3.1238355307188925 179.75631672168782 54.98520260275433 H 0.0 **** 0.06
8481 C 128.40078579410488 162.47857017762112 131.74423031116038 C 0.0 **** -0.24
8482 H 128.38933377799498 161.66880000384273 131.0144930386004 H 0.0 **** 0.06
8483 H 129.29204247704456 162.39409195234148 132.36715595088208 H 0.0 **** 0.06
8484 H 127.5119086171237 162.414223984303 132.37220268872784 H 0.0 **** 0.06
8485 H 128.4099692720821 163.43631637274862 131.2235871888468 H 0.0 **** 0.06
8486 C 70.55047019314323 175.34581037833652 107.87234577318367 C 0.0 **** -0.24
8487 H 71.34964799388362 176.04116889100362 108.12664228234041 H 0.0 **** 0.06
8488 H 69.81175332983689 175.85367134244606 107.25175491243652 H 0.0 **** 0.06
8489 H 70.0752251081808 174.98954868015744 108.78657445738628 H 0.0 **** 0.06
8490 H 70.96512241262181 174.49906895056128 107.3253788143495 H 0.0 **** 0.06
8491 C 13.868687152521034 83.94379247247775 104.83133702867168 C 0.0 **** -0.24
8492 H 13.217143286240713 83.07313067829529 104.89896076540144 H 0.0 **** 0.06
8493 H 13.409836338560694 84.78239683939319 105.35586541688038 H 0.0 **** 0.06
8494 H 14.016806191672181 84.20630750314626 103.78368824208901 H 0.0 **** 0.06
8495 H 14.832161217819973 83.71261545322653 105.28661858643419 H 0.0 **** 0.06
8496 C 184.3431206970252 182.06330269058628 168.7322998414394 C 0.0 **** -0.24
8497 H 184.9032495904686 181.14771157935382 168.92081745424386 H 0.0 **** 0.06
8498 H 184.34031736095372 182.27368273543794 167.66310821929952 H 0.0 **** 0.06
8499 H 184.8124051653072 182.89136247799752 169.2647361959334 H 0.0 **** 0.06
8500 H 183.31832991465072 181.94035498811263 169.08183390676334 H 0.0 **** 0.06
8501 C 154.8812349165932 37.6804777020223 0.3691769288599005 C 0.0 **** -0.24
8502 H 154.58343632731157 36.66267499749 0.11748462769529056 H 0.0 **** 0.06
8503 H 155.90406468899684 37.85352380253872 0.034266983267002615 H 0.0 **** 0.06
8504 H 154.82332611965333 37.8193547327607 1.4483419224645786 H 0.0 **** 0.06
8505 H 154.21340168934404 38.38661702658271 -0.12458050777053131 H 0.0 **** 0.06
8506 C 93.91277242531883 48.344743871630556 8.31060130757249 C 0.0 **** -0.24
8507 H 93.37773276390807 48.92407746205839 7.558217421623787 H 0.0 **** 0.06
8508 H 93.53758227211291 48.60064092542072 9.301393619578661 H 0.0 **** 0.06
8509 H 94.97741984875925 48.572345826164394 8.254471232601716 H 0.0 **** 0.06
8510 H 93.75807955787276 47.28170803148211 8.126625016624978 H 0.0 **** 0.06
8511 C 24.145695697361347 95.71493184317764 60.672902802786766 C 0.0 **** -0.24
8512 H 24.036909185906026 95.34918192869101 59.651886222258454 H 0.0 **** 0.06
8513 H 24.572362944298987 96.7172898238464 60.656414142643925 H 0.0 **** 0.06
8514 H 24.804684805623282 95.04720639795777 61.22843359756449 H 0.0 **** 0.06
8515 H 23.16794093423819 95.74258428191784 61.15441743597796 H 0.0 **** 0.06
8516 C 80.50479162261904 81.8123510430268 100.0440753879959 C 0.0 **** -0.24
8517 H 79.47294696737225 82.07569658361373 100.27614669643442 H 0.0 **** 0.06
8518 H 81.12593249384734 82.70801939610436 100.08576020492758 H 0.0 **** 0.06
8519 H 80.55340692524156 81.38171200447248 99.04457456146038 H 0.0 **** 0.06
8520 H 80.8664122457502 81.08520620013638 100.77094625643481 H 0.0 **** 0.06
8521 C 71.70157848640378 36.41773461499103 22.58962784544167 C 0.0 **** -0.24
8522 H 71.56737580230072 36.50605661288546 21.511501123238503 H 0.0 **** 0.06
8523 H 72.68830941122476 36.003668576375034 22.79959638455142 H 0.0 **** 0.06
8524 H 70.93563763406793 35.75861647639529 22.99784744872366 H 0.0 **** 0.06
8525 H 71.61553296150412 37.403393809633684 23.04754868540053 H 0.0 **** 0.06
8526 C 159.91585302735123 84.51350297926061 175.75434854998204 C 0.0 **** -0.24
8527 H 160.13566467836165 85.54212879888495 176.0401074048369 H 0.0 **** 0.06
8528 H 160.8333626071841 84.02439246814694 175.42739681301413 H 0.0 **** 0.06
8529 H 159.19081051303436 84.5103396932485 174.94051152242005 H 0.0 **** 0.06
8530 H 159.50377903830406 83.97903440355714 176.61093115509362 H 0.0 **** 0.06
8531 C 73.42994081653109 3.5900657843996555 1.5680505378446838 C 0.0 **** -0.24
8532 H 72.70794986199301 4.091170466118257 0.9235976592569131 H 0.0 **** 0.06
8533 H 74.29750891957633 4.235041056896023 1.7127152694686743 H 0.0 **** 0.06
8534 H 73.74432674134252 2.6557049182391097 1.104099461757066 H 0.0 **** 0.06
8535 H 72.96890451418169 3.379235236451393 2.533538703291441 H 0.0 **** 0.06
8536 C 161.64121910701573 51.73924105076432 14.322789524065684 C 0.0 **** -0.24
8537 H 160.96653827724836 50.952568016713656 14.660892592814633 H 0.0 **** 0.06
8538 H 162.08560711255853 51.45100067766941 13.369909593551426 H 0.0 **** 0.06
8539 H 162.4280812632403 51.884441971568776 15.062240655825747 H 0.0 **** 0.06
8540 H 161.08339057850037 52.66712844670525 14.198404378165094 H 0.0 **** 0.06
8541 C 3.3533511156871825 46.950135578096166 99.96853543552037 C 0.0 **** -0.24
8542 H 2.897926730547482 47.91391080314783 100.19483013923205 H 0.0 **** 0.06
8543 H 3.8715816714509117 47.008919803216386 99.01125393215115 H 0.0 **** 0.06
8544 H 2.5776739782549996 46.18518586322516 99.91585420179321 H 0.0 **** 0.06
8545 H 4.065211085096081 46.69155299457452 100.75238095137767 H 0.0 **** 0.06
8546 C 80.53212689142359 175.30068593331828 102.80311678374936 C 0.0 **** -0.24
8547 H 80.28479960157948 174.5048872501536 103.50515240355396 H 0.0 **** 0.06
8548 H 79.70909840018972 175.43496171487857 102.10136791536529 H 0.0 **** 0.06
8549 H 81.43754978045042 175.0347578481085 102.25733934225117 H 0.0 **** 0.06
8550 H 80.69869396377707 176.22854598745062 103.35108988014026 H 0.0 **** 0.06
8551 C 148.25795373908542 112.35131080033068 151.16717415271376 C 0.0 **** -0.24
8552 H 148.08190680863547 113.41831034859536 151.03176810255718 H 0.0 **** 0.06
8553 H 149.3290702412159 112.16783591339413 151.25348044084967 H 0.0 **** 0.06
8554 H 147.86328881306324 111.80611300967269 150.30949860743726 H 0.0 **** 0.06
8555 H 147.75617024588502 112.0128852185739 152.07424793112682 H 0.0 **** 0.06
8556 C 73.7659733996768 32.33187303444119 41.93069997124877 C 0.0 **** -0.24
8557 H 74.77893588220343 31.98527034093584 42.135677893324555 H 0.0 **** 0.06
8558 H 73.3128786624419 32.695068299786115 42.854031852105976 H 0.0 **** 0.06
8559 H 73.17304422762453 31.506948306859613 41.534408943156905 H 0.0 **** 0.06
8560 H 73.79973648173359 33.13921137625296 41.19940235044626 H 0.0 **** 0.06
8561 C 89.15533055353042 47.521740481919636 161.17885631515907 C 0.0 **** -0.24
8562 H 89.31249911368324 47.856282493754094 162.20301986933646 H 0.0 **** 0.06
8563 H 88.41159061297522 48.1583040422756 160.69885827980633 H 0.0 **** 0.06
8564 H 88.80150331235463 46.490387115606325 161.18331728176875 H 0.0 **** 0.06
8565 H 90.09405600010358 47.58086138112259 160.6288403184683 H 0.0 **** 0.06
8566 C 142.17642390734466 133.81137248380583 45.18387874050461 C 0.0 **** -0.24
8567 H 142.53866140747147 134.77321148423448 44.82043947145104 H 0.0 **** 0.06
8568 H 141.08628384646727 133.80587877937478 45.17002799731955 H 0.0 **** 0.06
8569 H 142.5278423470789 133.65232631881065 46.203768333634116 H 0.0 **** 0.06
8570 H 142.55238500732094 133.01537954392353 44.54142185922305 H 0.0 **** 0.06
8571 C 44.15830676856203 89.54142329721425 110.1830527880769 C 0.0 **** -0.24
8572 H 43.82101136172054 89.95611998547626 109.23322184311883 H 0.0 **** 0.06
8573 H 45.22642869219112 89.3332921234104 110.12969261581827 H 0.0 **** 0.06
8574 H 43.61721807338546 88.61768732025031 110.38847488042194 H 0.0 **** 0.06
8575 H 43.966448593590485 90.2592526694839 110.98108650734747 H 0.0 **** 0.06
8576 C 41.10779622788071 11.755529254624719 67.21418834432461 C 0.0 **** -0.24
8577 H 40.14488375877144 12.198187959022711 67.46786372065577 H 0.0 **** 0.06
8578 H 41.886538646495254 12.201499864787259 67.83446237422277 H 0.0 **** 0.06
8579 H 41.328625082802944 11.941449422270168 66.16385333462627 H 0.0 **** 0.06
8580 H 41.07164449170797 10.680302334029797 67.39345217319294 H 0.0 **** 0.06
8581 C 154.79124992992175 138.76655446206507 44.05044744268466 C 0.0 **** -0.24
8582 H 154.0403333528288 138.03830646878356 44.357146843206976 H 0.0 **** 0.06
8583 H 155.24190446776075 138.44938852712056 43.109026353951435 H 0.0 **** 0.06
8584 H 155.56205765373988 138.8381256951693 44.81720513063769 H 0.0 **** 0.06
8585 H 154.3193880301559 139.74008977694837 43.91732831364402 H 0.0 **** 0.06
8586 C 60.715387903357296 115.45245389668368 182.18324457481123 C 0.0 **** -0.24
8587 H 60.86540572305502 114.45798863320228 181.7636294619797 H 0.0 **** 0.06
8588 H 60.28234334250928 115.3640505897168 183.17985163799347 H 0.0 **** 0.06
8589 H 60.040057889252125 116.0190058137239 181.54191886450005 H 0.0 **** 0.06
8590 H 61.67383590505099 115.96783363169872 182.2472408696218 H 0.0 **** 0.06
8591 C 169.80660601268997 82.37283693507557 147.69218663588092 C 0.0 **** -0.24
8592 H 170.8251252812339 82.35273418038436 148.07787524539464 H 0.0 **** 0.06
8593 H 169.78882863999078 81.94483149531622 146.68898540150954 H 0.0 **** 0.06
8594 H 169.45326168509098 83.4028075657388 147.65431018893833 H 0.0 **** 0.06
8595 H 169.1583509824698 81.78995506568097 148.34710077149603 H 0.0 **** 0.06
8596 C 89.5436266086454 115.18580697431956 94.62336019176625 C 0.0 **** -0.24
8597 H 89.12858535247175 115.16558122443045 93.61505514431501 H 0.0 **** 0.06
8598 H 89.4926289661641 114.187906172766 95.05707041141595 H 0.0 **** 0.06
8599 H 88.96996699819799 115.87968898291793 95.23807783503433 H 0.0 **** 0.06
8600 H 90.58274233955358 115.5126356682337 94.58059486256532 H 0.0 **** 0.06
8601 C 84.6730354152784 124.68275192502811 33.39935349111056 C 0.0 **** -0.24
8602 H 85.31026653761872 125.23406459837422 32.70683834121451 H 0.0 **** 0.06
8603 H 84.3061877431892 125.35861735643054 34.17103220445364 H 0.0 **** 0.06
8604 H 85.24857313750083 123.880850653866 33.862107262509284 H 0.0 **** 0.06
8605 H 83.82978834130606 124.2575138624728 32.85574857184824 H 0.0 **** 0.06
8606 C 128.84575542333607 55.3940246497701 25.90608875473086 C 0.0 **** -0.24
8607 H 129.93289809219414 55.31640673465159 25.927317185156426 H 0.0 **** 0.06
8608 H 128.52529004399958 56.19398751968279 26.572517803931078 H 0.0 **** 0.06
8609 H 128.40743943361753 54.450660422881896 26.23283239967293 H 0.0 **** 0.06
8610 H 128.5176678493171 55.61360845473712 24.89032212396296 H 0.0 **** 0.06
8611 C 69.95576456783891 14.540382447938583 121.2756695211059 C 0.0 **** -0.24
8612 H 69.9742415308656 13.473898710750518 121.0510622967467 H 0.0 **** 0.06
8613 H 70.7282287335598 14.770903571370013 122.00905446605327 H 0.0 **** 0.06
8614 H 68.9797475189152 14.808978100651217 121.6775667885828 H 0.0 **** 0.06
8615 H 70.1417492747685 15.105980851161775 120.36215787894679 H 0.0 **** 0.06
8616 C 98.64902716432793 6.953788740393783 127.63687122614964 C 0.0 **** -0.24
8617 H 97.70953211847747 7.470619295255432 127.82788314682979 H 0.0 **** 0.06
8618 H 98.44755017347963 6.003159460516535 127.14324145183004 H 0.0 **** 0.06
8619 H 99.16149463007604 6.77126677869105 128.58187927632792 H 0.0 **** 0.06
8620 H 99.27973874160499 7.570198196758348 126.99482940670593 H 0.0 **** 0.06
8621 C 77.97667781196019 146.20759073736514 5.727154483770448 C 0.0 **** -0.24
8622 H 77.07173729213078 145.59977474846772 5.728019797586867 H 0.0 **** 0.06
8623 H 77.82332186984942 147.08853780591465 6.351110091593384 H 0.0 **** 0.06
8624 H 78.20287526819631 146.51933840264357 4.707519026907583 H 0.0 **** 0.06
8625 H 78.80848907663237 145.62306179547974 6.121077465494082 H 0.0 **** 0.06
8626 C 38.38099216342982 93.68820915706812 0.25682097038065876 C 0.0 **** -0.24
8627 H 37.81646256879634 93.59963800851762 1.1839848199415428 H 0.0 **** 0.06
8628 H 37.96311812515523 93.0110588375664 -0.4889954467566895 H 0.0 **** 0.06
8629 H 39.42403943668569 93.42869929209172 0.439638896507887 H 0.0 **** 0.06
8630 H 38.32035079995728 94.71385806346814 -0.10869556422281335 H 0.0 **** 0.06
8631 C 55.605211686220116 148.73567801812902 56.89142931226627 C 0.0 **** -0.24
8632 H 55.417920567938054 147.69021326957048 57.13467576863076 H 0.0 **** 0.06
8633 H 56.24448072968012 148.79451744122076 56.0105045839814 H 0.0 **** 0.06
8634 H 56.09938898683019 149.2208595867421 57.7326973941141 H 0.0 **** 0.06
8635 H 54.65859236902138 149.23601230630157 56.689086006471484 H 0.0 **** 0.06
8636 C 145.88703262514596 59.11092081478654 13.934679935018835 C 0.0 **** -0.24
8637 H 146.20714760188753 60.09994987818891 14.263105401218041 H 0.0 **** 0.06
8638 H 146.71655964056092 58.60691086635637 13.439090127708226 H 0.0 **** 0.06
8639 H 145.05411355782275 59.212496698452014 13.23820412332239 H 0.0 **** 0.06
8640 H 145.56953867221284 58.52665078582413 14.798333503048696 H 0.0 **** 0.06
8641 C 56.973505989626176 76.40055166212682 111.81282422258609 C 0.0 **** -0.24
8642 H 57.20827168895363 77.34763198042788 111.32780125294165 H 0.0 **** 0.06
8643 H 57.89089930844948 75.94768112285061 112.18906103666704 H 0.0 **** 0.06
8644 H 56.50522268657966 75.73036768843315 111.0911632352797 H 0.0 **** 0.06
8645 H 56.288242413603655 76.57669049335215 112.64184068878542 H 0.0 **** 0.06
8646 C 59.80025918805808 6.428832478468173 57.66547438500332 C 0.0 **** -0.24
8647 H 58.76999377800283 6.1551990278086635 57.89453398370598 H 0.0 **** 0.06
8648 H 60.350486490613264 6.578861888937432 58.59515147449849 H 0.0 **** 0.06
8649 H 59.80942702647954 7.350367119869134 57.08420319525824 H 0.0 **** 0.06
8650 H 60.268521709059996 5.631330878801435 57.08974550821196 H 0.0 **** 0.06
8651 C 171.93280684188045 82.5753651645698 53.33985469623586 C 0.0 **** -0.24
8652 H 171.36301791122395 82.33305033823211 54.23783827258838 H 0.0 **** 0.06
8653 H 171.2593430369924 82.61998391652492 52.484121661455546 H 0.0 **** 0.06
8654 H 172.6866173419002 81.8076937491872 53.170217885959104 H 0.0 **** 0.06
8655 H 172.42042719357627 83.54138181960491 53.4704440368685 H 0.0 **** 0.06
8656 C 21.636707349267596 172.61311247716418 129.80608374479567 C 0.0 **** -0.24
8657 H 22.514806150693005 173.24288862609924 129.9515377871569 H 0.0 **** 0.06
8658 H 21.35791925589109 172.15404593009552 130.75489799568174 H 0.0 **** 0.06
8659 H 21.864753301123358 171.8343930703458 129.07743600890763 H 0.0 **** 0.06
8660 H 20.809787909622116 173.222252919727 129.43973480122884 H 0.0 **** 0.06
8661 C 104.99526258125883 154.39089810082675 64.63433263365351 C 0.0 **** -0.24
8662 H 104.01278808944079 154.3945684544214 65.10812141071352 H 0.0 **** 0.06
8663 H 105.49701292799193 153.44721955763123 64.84756431796814 H 0.0 **** 0.06
8664 H 105.58903235034501 155.21639320424487 65.02659613332116 H 0.0 **** 0.06
8665 H 104.87858613455029 154.50721466433708 63.55718528558788 H 0.0 **** 0.06
8666 C 133.16019711079093 51.631240589951815 154.97617640815412 C 0.0 **** -0.24
8667 H 132.9117789315598 51.37792421967701 156.00685511168464 H 0.0 **** 0.06
8668 H 133.90181396235147 50.927173670393955 154.59712678979224 H 0.0 **** 0.06
8669 H 133.56556622380958 52.64272503016207 154.9383545723521 H 0.0 **** 0.06
8670 H 132.26141018727935 51.57806973540836 154.36266335743022 H 0.0 **** 0.06
8671 C 181.69700415100235 96.62188633855148 116.01974275479722 C 0.0 **** -0.24
8672 H 182.0341004757898 95.83088547391351 115.34870467807787 H 0.0 **** 0.06
8673 H 182.14512725650312 96.47925449869963 117.0031613879126 H 0.0 **** 0.06
8674 H 180.61062085128583 96.58604614963771 116.10638104222858 H 0.0 **** 0.06
8675 H 181.99761465545154 97.58957370709003 115.61914092756922 H 0.0 **** 0.06
8676 C 127.69242738087549 158.74709392750594 110.50213812846336 C 0.0 **** -0.24
8677 H 127.3470342592597 159.48852973190128 111.22295982292873 H 0.0 **** 0.06
8678 H 127.06379500292606 158.78685755101532 109.61261547636558 H 0.0 **** 0.06
8679 H 127.63223164295418 157.7534562119108 110.94571328165374 H 0.0 **** 0.06
8680 H 128.72475394496774 158.96079744342507 110.22816368762106 H 0.0 **** 0.06
8681 C 74.7637338861614 171.0091399688296 145.33924855550794 C 0.0 **** -0.24
8682 H 73.91908824929367 170.71087034530692 145.95999112162892 H 0.0 **** 0.06
8683 H 75.66379905731245 170.4958478301226 145.67812794295241 H 0.0 **** 0.06
8684 H 74.90826651141366 172.08726309550562 145.41697394587538 H 0.0 **** 0.06
8685 H 74.56322813287713 170.74361726562648 144.30063046733315 H 0.0 **** 0.06
8686 C 98.74674059908695 183.507912860835 76.71511292344252 C 0.0 **** -0.24
8687 H 99.20293033272152 184.4807849634795 76.89959374874542 H 0.0 **** 0.06
8688 H 97.76865332362671 183.64727207005282 76.25515679066763 H 0.0 **** 0.06
8689 H 98.63160831085035 182.9762729913434 77.65993194335664 H 0.0 **** 0.06
8690 H 99.38352324364244 182.9284658060748 76.04767430939626 H 0.0 **** 0.06
8691 C 87.64717188021648 82.86084796468162 127.03061400516577 C 0.0 **** -0.24
8692 H 87.7695221104919 81.9099702704707 126.5115095768328 H 0.0 **** 0.06
8693 H 86.62987742776001 82.93507534870827 127.41611715448238 H 0.0 **** 0.06
8694 H 87.83455334868687 83.67932693712152 126.33643485640874 H 0.0 **** 0.06
8695 H 88.35401214134644 82.91581941447271 127.85790556340368 H 0.0 **** 0.06
8696 C 101.0659890428089 176.2727596458127 174.35537901678742 C 0.0 **** -0.24
8697 H 100.39683169665199 175.54725796264586 174.81876776891392 H 0.0 **** 0.06
8698 H 102.09951564147218 175.97735380720314 174.53386572148753 H 0.0 **** 0.06
8699 H 100.88888468565278 177.25768906568754 174.78914333628413 H 0.0 **** 0.06
8700 H 100.87659537043032 176.3081254764823 173.2827548296792 H 0.0 **** 0.06
8701 C 101.42249853620744 110.82871674967477 150.61034681702685 C 0.0 **** -0.24
8702 H 102.0048407019881 110.03254334577973 151.0738086481653 H 0.0 **** 0.06
8703 H 100.3593166178956 110.61610233763291 150.72723441817695 H 0.0 **** 0.06
8704 H 101.66579854754669 110.88693252143098 149.54921562649508 H 0.0 **** 0.06
8705 H 101.65948569516429 111.77833534968174 151.08979228517208 H 0.0 **** 0.06
8706 C 95.9195058552974 99.05848924726654 181.55710340047915 C 0.0 **** -0.24
8707 H 96.44938631724328 99.22016536865841 182.4956884445324 H 0.0 **** 0.06
8708 H 95.61237747255207 98.01421874355275 181.48967442838477 H 0.0 **** 0.06
8709 H 96.57727319606884 99.29926757061243 180.72200383414054 H 0.0 **** 0.06
8710 H 95.03837025224185 99.70000810602521 181.5233989447579 H 0.0 **** 0.06
8711 C 5.103783775736467 105.39950980247083 109.87682776799791 C 0.0 **** -0.24
8712 H 4.563696548281612 105.87179934599713 110.6975492449949 H 0.0 **** 0.06
8713 H 4.967043190990466 104.31915285791978 109.92752546422066 H 0.0 **** 0.06
8714 H 6.16429073941277 105.63615443581661 109.95553374161871 H 0.0 **** 0.06
8715 H 4.718078687146111 105.77034538849826 108.92744486107101 H 0.0 **** 0.06
8716 C 79.96494290743753 86.23838698562423 114.121392803235 C 0.0 **** -0.24
8717 H 79.39917445218425 85.86774740966149 114.97581641497258 H 0.0 **** 0.06
8718 H 80.55204510951174 87.1062279118176 114.42426989163833 H 0.0 **** 0.06
8719 H 79.2771269371222 86.52551486815742 113.32646694699453 H 0.0 **** 0.06
8720 H 80.63170115632413 85.45572010019583 113.75941856570695 H 0.0 **** 0.06
8721 C 181.89937913797607 33.990520980623444 124.80816041115644 C 0.0 **** -0.24
8722 H 182.32891734947933 33.66697814807671 123.85940894027432 H 0.0 **** 0.06
8723 H 181.6187157431388 35.04156262281899 124.7390381154754 H 0.0 **** 0.06
8724 H 182.63361030161116 33.861952799029794 125.60228139599458 H 0.0 **** 0.06
8725 H 181.01601028474897 33.39235086141126 125.02959960855948 H 0.0 **** 0.06
8726 C 172.5667501638565 121.30213643476299 31.434859540597415 C 0.0 **** -0.24
8727 H 171.7324789109916 120.64309025775981 31.19703198323674 H 0.0 **** 0.06
8728 H 172.37920292780097 122.29134615881088 31.01789850395241 H 0.0 **** 0.06
8729 H 173.48447850217818 120.8952221920186 31.008351745663802 H 0.0 **** 0.06
8730 H 172.67204138376695 121.37727557468338 32.51713595201258 H 0.0 **** 0.06
8731 C 26.557974594235645 156.57739581388935 46.789557477446635 C 0.0 **** -0.24
8732 H 26.916292469469624 155.7753667039228 47.43367387328112 H 0.0 **** 0.06
8733 H 26.795866400606457 156.34318723060449 45.750607401915715 H 0.0 **** 0.06
8734 H 27.0414552518223 157.51289876687122 47.071410361605245 H 0.0 **** 0.06
8735 H 25.478201745515207 156.67803191047147 46.90081098153655 H 0.0 **** 0.06
8736 C 15.621375077947114 144.95924479965328 122.67227796816537 C 0.0 **** -0.24
8737 H 14.847515874927147 144.67968825883784 121.95799412010645 H 0.0 **** 0.06
8738 H 15.472399065118005 144.41188006347488 123.6033485192256 H 0.0 **** 0.06
8739 H 15.56531826077564 146.03085418270695 122.86787031780368 H 0.0 **** 0.06
8740 H 16.601640045134573 144.7171145444204 122.26065566737107 H 0.0 **** 0.06
8741 C 39.86598011071817 155.30798867653647 167.52042684317283 C 0.0 **** -0.24
8742 H 40.23396472316878 155.31408788919532 166.4943422985551 H 0.0 **** 0.06
8743 H 39.54603721927447 156.3129163451934 167.79683289155656 H 0.0 **** 0.06
8744 H 40.66237978516 154.98291952843772 168.1894447472889 H 0.0 **** 0.06
8745 H 39.02276107283484 154.62285046376573 167.60017403375485 H 0.0 **** 0.06
8746 C 173.12620881247508 177.3403205233775 136.54508043316838 C 0.0 **** -0.24
8747 H 174.17029925077955 177.46157058240016 136.8317438523062 H 0.0 **** 0.06
8748 H 172.79241958292468 178.22741134590427 136.00493319811625 H 0.0 **** 0.06
8749 H 172.51685466615427 177.20994165203467 137.4396748943933 H 0.0 **** 0.06
8750 H 173.02341963345435 176.46472596919185 135.903925280532 H 0.0 **** 0.06
8751 C 173.74316940979665 162.6116620478442 13.987827126634016 C 0.0 **** -0.24
8752 H 173.6190199277499 161.57350328277607 14.297069209023903 H 0.0 **** 0.06
8753 H 173.6333491322872 163.2641597310195 14.854430646676576 H 0.0 **** 0.06
8754 H 172.9855810815804 162.8618677237456 13.245791154025255 H 0.0 **** 0.06
8755 H 174.7338970483365 162.74602225521238 13.55507152156946 H 0.0 **** 0.06
8756 C 18.290232567810705 126.50318912745227 169.18738373509404 C 0.0 **** -0.24
8757 H 19.18812012310191 126.02014207981215 169.57356227552197 H 0.0 **** 0.06
8758 H 17.49768846934326 125.76266006116076 169.07759335033757 H 0.0 **** 0.06
8759 H 18.507083204605863 126.94993130005984 168.21642924247723 H 0.0 **** 0.06
8760 H 17.968803971466144 127.27995645664659 169.88076279524896 H 0.0 **** 0.06
8761 C 104.8601532413324 151.40105144773355 23.026019979346643 C 0.0 **** -0.24
8762 H 104.21079807726437 150.8703136148236 23.7219147808687 H 0.0 **** 0.06
8763 H 105.16326243714826 150.72595402062856 22.225338608337324 H 0.0 **** 0.06
8764 H 105.74391320556305 151.75839121307888 23.554068241829526 H 0.0 **** 0.06
8765 H 104.32187904341998 152.24865285094904 22.601969145729072 H 0.0 **** 0.06
8766 C 67.79774529702206 86.19082177408337 5.277596612807912 C 0.0 **** -0.24
8767 H 68.65346119261437 86.72113397582886 4.861078173943767 H 0.0 **** 0.06
8768 H 67.04069368142694 86.91160897454127 5.587870760457868 H 0.0 **** 0.06
8769 H 68.11777969393776 85.60569892272854 6.141113060189774 H 0.0 **** 0.06
8770 H 67.37988169491459 85.5256335318705 4.522909300404329 H 0.0 **** 0.06
8771 C 35.55921396720724 80.3852680140734 86.06854886544205 C 0.0 **** -0.24
8772 H 35.26549819127425 79.65402952457055 85.31474205671769 H 0.0 **** 0.06
8773 H 36.204223182033715 79.9060039469706 86.80562990078825 H 0.0 **** 0.06
8774 H 34.66917815546175 80.77380836688714 86.5620820220539 H 0.0 **** 0.06
8775 H 36.09688283837042 81.20297827645145 85.59041140425829 H 0.0 **** 0.06
8776 C 76.39500480744988 100.10435695279223 147.81879944247856 C 0.0 **** -0.24
8777 H 76.17811154542663 99.25902707441712 148.47322523447727 H 0.0 **** 0.06
8778 H 75.48195514643491 100.4090424503289 147.30630997629825 H 0.0 **** 0.06
8779 H 77.14395423704498 99.81051038901576 147.0833150342717 H 0.0 **** 0.06
8780 H 76.77489993137031 100.9353166990684 148.41291723417385 H 0.0 **** 0.06
8781 C 78.06044114007362 147.17080649822168 87.10239490572955 C 0.0 **** -0.24
8782 H 78.98832877583226 147.5462973542281 87.53334908601896 H 0.0 **** 0.06
8783 H 77.29496793166848 147.11885467213446 87.87691291629424 H 0.0 **** 0.06
8784 H 78.22830156319043 146.1758618522399 86.69034468130043 H 0.0 **** 0.06
8785 H 77.73079446421542 147.8409479354678 86.30905836767612 H 0.0 **** 0.06
8786 C 131.2007964283639 89.26992429376462 48.79486211206509 C 0.0 **** -0.24
8787 H 130.9879516893838 90.21646277842756 49.29172665861438 H 0.0 **** 0.06
8788 H 132.07747218917666 88.80999848980493 49.249934859845325 H 0.0 **** 0.06
8789 H 131.39227843970264 89.45089321116085 47.73738906622657 H 0.0 **** 0.06
8790 H 130.3446746726571 88.60442337514489 48.9002680008054 H 0.0 **** 0.06
8791 C 124.70507273049235 105.43372659659154 124.20856911626231 C 0.0 **** -0.24
8792 H 125.21557787701458 105.83111047757738 123.33103967417861 H 0.0 **** 0.06
8793 H 123.63169942268466 105.39932424154735 124.01981105929849 H 0.0 **** 0.06
8794 H 124.90271821073357 106.07671269504944 125.06606984346064 H 0.0 **** 0.06
8795 H 125.07043023460155 104.42825412886877 124.41603805199236 H 0.0 **** 0.06
8796 C 56.98564318358892 124.83357182950517 183.37590165406846 C 0.0 **** -0.24
8797 H 56.88619667740882 123.80076342221999 183.04158061721466 H 0.0 **** 0.06
8798 H 57.33923854078836 124.84849324612473 184.40739817174295 H 0.0 **** 0.06
8799 H 56.01713497734846 125.32923716545797 183.31641156344114 H 0.0 **** 0.06
8800 H 57.701123042395494 125.35365894274732 182.73865026009136 H 0.0 **** 0.06
8801 C 168.31077098036454 182.4946473675516 112.82151163156074 C 0.0 **** -0.24
8802 H 168.83075362617694 183.4521395877955 112.81395928722894 H 0.0 **** 0.06
8803 H 167.97391712654343 182.27250997012783 113.8348111222654 H 0.0 **** 0.06
8804 H 168.98740648774708 181.71122083668024 112.48250339422417 H 0.0 **** 0.06
8805 H 167.4494322834009 182.5442981373796 112.15493993409906 H 0.0 **** 0.06
8806 C 112.57434209917 177.18905734106613 136.34987907995952 C 0.0 **** -0.24
8807 H 111.70974016465112 176.5549151102635 136.5445415466075 H 0.0 **** 0.06
8808 H 112.85239938822491 177.1102425289372 135.29874838396523 H 0.0 **** 0.06
8809 H 113.40942994090886 176.8651347158812 136.9722783341797 H 0.0 **** 0.06
8810 H 112.3269984115986 178.2241151233432 136.58444002503688 H 0.0 **** 0.06
8811 C 140.5168696896435 37.81365571955547 131.22535365472544 C 0.0 **** -0.24
8812 H 141.04425913975604 37.33391225197343 130.39956131463822 H 0.0 **** 0.06
8813 H 139.85997512575278 37.08938868316682 131.70621656178884 H 0.0 **** 0.06
8814 H 139.92483830792122 38.645280622150835 130.8433206373253 H 0.0 **** 0.06
8815 H 141.241376388135 38.18560041830199 131.95090764111796 H 0.0 **** 0.06
8816 C 67.46590728561921 121.05162792759297 179.9346476258935 C 0.0 **** -0.24
8817 H 68.25279088915066 121.78389122532919 180.11294792839792 H 0.0 **** 0.06
8818 H 67.65416580366856 120.16207972280425 180.53782765357406 H 0.0 **** 0.06
8819 H 67.45413659518482 120.7796119801351 178.87940351775865 H 0.0 **** 0.06
8820 H 66.50228379647221 121.47995643858808 180.2106454949656 H 0.0 **** 0.06
8821 C 27.145603395282535 140.7638867198516 169.4622897571315 C 0.0 **** -0.24
8822 H 26.775790067317274 140.93972225266867 168.45238960457314 H 0.0 **** 0.06
8823 H 26.968283286280325 141.64862181131838 170.07370267666494 H 0.0 **** 0.06
8824 H 28.215980192295604 140.55633887891514 169.42557709595775 H 0.0 **** 0.06
8825 H 26.624931382833907 139.91037433273817 169.8957151917395 H 0.0 **** 0.06
8826 C 4.451203228662138 24.33282851291881 170.59145266352712 C 0.0 **** -0.24
8827 H 4.908432990014148 23.811423681925817 171.43252775909895 H 0.0 **** 0.06
8828 H 4.883750711497868 23.967689735396704 169.66034381178065 H 0.0 **** 0.06
8829 H 4.636826044650604 25.402454542736507 170.684122324414 H 0.0 **** 0.06
8830 H 3.377731235670751 24.148240316343504 170.59082061632205 H 0.0 **** 0.06
8831 C 155.38745134437977 54.3812895920352 27.649638900434283 C 0.0 **** -0.24
8832 H 154.42089053579286 54.76122994989332 27.97901082659925 H 0.0 **** 0.06
8833 H 155.53867608360872 53.37824554099001 28.04893838785111 H 0.0 **** 0.06
8834 H 156.17805920490719 55.039071056967174 28.01173438090997 H 0.0 **** 0.06
8835 H 155.4129016963937 54.34686138185782 26.560973518171096 H 0.0 **** 0.06
8836 C 48.877026192660765 80.30967518811497 162.40394378404451 C 0.0 **** -0.24
8837 H 48.61861850604555 81.05565791547858 163.1552483772933 H 0.0 **** 0.06
8838 H 48.854366269159414 80.76791760229122 161.41547893004042 H 0.0 **** 0.06
8839 H 48.15746857854572 79.49143091285531 162.44287354778558 H 0.0 **** 0.06
8840 H 49.876470347652344 79.92368227719004 162.60344116878937 H 0.0 **** 0.06
8841 C 42.39743371443555 131.22430999786036 25.02316210023389 C 0.0 **** -0.24
8842 H 41.9614663824689 132.21153174229397 25.17779743891117 H 0.0 **** 0.06
8843 H 42.07677524540617 130.83247588680467 24.05756614206655 H 0.0 **** 0.06
8844 H 42.06443897782279 130.55371809683066 25.816042544543194 H 0.0 **** 0.06
8845 H 43.48385431520535 131.2994295547399 25.0429016577109 H 0.0 **** 0.06
8846 C 14.219928921189911 102.02966559326423 155.44979593175674 C 0.0 **** -0.24
8847 H 14.589538661202326 101.12330229005416 155.92877876211162 H 0.0 **** 0.06
8848 H 15.052456859762906 102.70826577340942 155.26421740740773 H 0.0 **** 0.06
8849 H 13.493748804322827 102.5148285704643 156.103256509689 H 0.0 **** 0.06
8850 H 13.74282859721999 101.7713730452132 154.50463319810115 H 0.0 **** 0.06
8851 C 15.290934370682123 44.05065110605045 131.3497097779133 C 0.0 **** -0.24
8852 H 14.833197812597803 44.75586689876337 130.6555474716531 H 0.0 **** 0.06
8853 H 14.88505077111013 44.210013203020424 132.34962609193457 H 0.0 **** 0.06
8854 H 16.369570070486468 44.20436154412886 131.36639729495607 H 0.0 **** 0.06
8855 H 15.073386251412195 43.03199556521582 131.02847299598716 H 0.0 **** 0.06
8856 C 176.23787959543307 20.347420287490507 65.0376638505201 C 0.0 **** -0.24
8857 H 176.71933384622614 21.265945325717155 64.7016624685001 H 0.0 **** 0.06
8858 H 176.72732463461244 19.49073128226857 64.57336772901829 H 0.0 **** 0.06
8859 H 175.18644174284657 20.363963402188347 64.75329244699093 H 0.0 **** 0.06
8860 H 176.32016587230015 20.270652657177777 66.12174228751915 H 0.0 **** 0.06
8861 C 177.9430275620594 42.77251255182068 147.882560299083 C 0.0 **** -0.24
8862 H 178.40202027742018 42.341392545502 146.99311070541373 H 0.0 **** 0.06
8863 H 178.39873602068948 43.73976446284962 148.0954920170948 H 0.0 **** 0.06
8864 H 178.09728879370127 42.10412553733522 148.73018737328826 H 0.0 **** 0.06
8865 H 176.87471290231377 42.90363230286471 147.71258752473526 H 0.0 **** 0.06
8866 C 32.432558889060516 5.127844683183461 58.70564045797745 C 0.0 **** -0.24
8867 H 32.66254338548006 5.673632188454995 57.79032056541931 H 0.0 **** 0.06
8868 H 31.919179698357766 5.789837733486159 59.40316277071672 H 0.0 **** 0.06
8869 H 33.35777638990152 4.770524568083211 59.15657088336374 H 0.0 **** 0.06
8870 H 31.79144790935561 4.278454844515437 58.4699882251783 H 0.0 **** 0.06
8871 C 54.16015586367047 123.82367670104965 122.98301821868638 C 0.0 **** -0.24
8872 H 54.519312287778234 122.81554121622158 122.77355008795287 H 0.0 **** 0.06
8873 H 53.34233592198592 123.77517704932488 123.70249143418197 H 0.0 **** 0.06
8874 H 53.80663048702161 124.28186085477314 122.05941308171596 H 0.0 **** 0.06
8875 H 54.974108023489975 124.41993855909762 123.39630390668457 H 0.0 **** 0.06
8876 C 143.99405721454136 65.53803520949612 181.12899596058023 C 0.0 **** -0.24
8877 H 143.79245963546737 64.55557815423336 181.55484087576139 H 0.0 **** 0.06
8878 H 144.40841073019794 66.18897446188568 181.9000437295588 H 0.0 **** 0.06
8879 H 143.0660397497743 65.96706722682019 180.75127321451706 H 0.0 **** 0.06
8880 H 144.7090583416718 65.44115048864234 180.31217890951729 H 0.0 **** 0.06
8881 C 64.02433596571176 51.41501870456071 3.1309146682105506 C 0.0 **** -0.24
8882 H 64.06979765308074 51.933735713848165 2.1731609052341696 H 0.0 **** 0.06
8883 H 64.22637508352325 50.35443405119713 2.9803598386962733 H 0.0 **** 0.06
8884 H 63.03168202622854 51.53827585055848 3.563828276575151 H 0.0 **** 0.06
8885 H 64.76899268061209 51.835014475915216 3.8072232495520666 H 0.0 **** 0.06
8886 C 154.84111994283737 72.58627861208367 0.1398560215813518 C 0.0 **** -0.24
8887 H 155.67186430135376 73.29105889003453 0.10815542608918349 H 0.0 **** 0.06
8888 H 154.2926454770619 72.62876278170697 -0.8007975825880749 H 0.0 **** 0.06
8889 H 154.17480762611078 72.8466755990478 0.9627507229563435 H 0.0 **** 0.06
8890 H 155.2268638468824 71.57782611107292 0.29000781915567586 H 0.0 **** 0.06
8891 C 130.05006245243237 42.63549029049099 20.554244924249133 C 0.0 **** -0.24
8892 H 130.33498981014048 42.69257185404854 21.60426798669978 H 0.0 **** 0.06
8893 H 130.87342494976576 42.99126696808952 19.934022751567902 H 0.0 **** 0.06
8894 H 129.17067199511104 43.25744316855071 20.382890206783195 H 0.0 **** 0.06
8895 H 129.81977071696593 41.60237316088546 20.295360667049707 H 0.0 **** 0.06
8896 C 37.4397746778841 33.060688319732265 171.67389358157243 C 0.0 **** -0.24
8897 H 36.45201275747877 33.46246662313848 171.44586075201656 H 0.0 **** 0.06
8898 H 37.35095681368145 32.292164831353034 172.44158843784896 H 0.0 **** 0.06
8899 H 38.08378399004819 33.86271794236842 172.03492939630635 H 0.0 **** 0.06
8900 H 37.87139750931178 32.6262538661349 170.77257966137117 H 0.0 **** 0.06
8901 C 9.884248025999852 4.571897123421479 42.6317014996995 C 0.0 **** -0.24
8902 H 10.888712997366774 4.9522779858804995 42.445411698695196 H 0.0 **** 0.06
8903 H 9.948483924327967 3.593781352708419 43.10951074749951 H 0.0 **** 0.06
8904 H 9.349109767480158 4.480091495388365 41.686470237976195 H 0.0 **** 0.06
8905 H 9.350685414824646 5.261437659708577 43.28541331462718 H 0.0 **** 0.06
8906 C 31.997928304791245 68.7469452931711 179.77238493755212 C 0.0 **** -0.24
8907 H 32.464717821506085 69.44620696093804 179.07831502578705 H 0.0 **** 0.06
8908 H 32.46142287182313 67.76604205879818 179.6648628205075 H 0.0 **** 0.06
8909 H 30.933056630326703 68.67249731989807 179.55163806346448 H 0.0 **** 0.06
8910 H 32.133288676055784 69.10379863964654 180.79337495800291 H 0.0 **** 0.06
8911 C 106.56480415640443 60.8840242214234 1.3314565713535842 C 0.0 **** -0.24
8912 H 106.04334882768087 60.090145149115386 0.7955426294816448 H 0.0 **** 0.06
8913 H 105.84180497948684 61.621586820067435 1.6804436438495713 H 0.0 **** 0.06
8914 H 107.28019826584323 61.36273929624532 0.6635355556889806 H 0.0 **** 0.06
8915 H 107.09256167036357 60.45914922641562 2.1852227014334176 H 0.0 **** 0.06
8916 C 164.68670580598973 107.1642483330783 179.43868856223838 C 0.0 **** -0.24
8917 H 164.26478499793626 107.57524218650543 178.5215183227536 H 0.0 **** 0.06
8918 H 165.74817510200563 106.96656420050472 179.29358773649852 H 0.0 **** 0.06
8919 H 164.17399011486003 106.23541460898149 179.68891825530926 H 0.0 **** 0.06
8920 H 164.55690223946598 107.88013758004017 180.25052659501563 H 0.0 **** 0.06
8921 C 23.07589569161415 15.27081763100125 87.924402600763 C 0.0 **** -0.24
8922 H 22.262606947484954 14.894824358382238 87.3035976044335 H 0.0 **** 0.06
8923 H 22.834259735886704 16.276224589110342 88.2698288414969 H 0.0 **** 0.06
8924 H 23.995556842812036 15.29805491670595 87.33955657669493 H 0.0 **** 0.06
8925 H 23.210027753829706 14.613416636650811 88.78315860455704 H 0.0 **** 0.06
8926 C 27.295811525789105 30.808164461474746 17.074620669871123 C 0.0 **** -0.24
8927 H 26.64016459253986 29.951551492680835 16.918368683873126 H 0.0 **** 0.06
8928 H 28.323085860661365 30.526256546633306 16.845557992335586 H 0.0 **** 0.06
8929 H 27.23076747260822 31.13070780301578 18.11448530712262 H 0.0 **** 0.06
8930 H 26.987697079423242 31.62438727862599 16.421681814668283 H 0.0 **** 0.06
8931 C 120.51849801128385 100.41235724595516 75.44295183502373 C 0.0 **** -0.24
8932 H 120.0219390288499 99.47674609538613 75.70218597784407 H 0.0 **** 0.06
8933 H 120.85335434709772 100.90939454422384 76.35303947103212 H 0.0 **** 0.06
8934 H 119.81951457093122 101.05841412396448 74.91217974321972 H 0.0 **** 0.06
8935 H 121.37680929306764 100.20261416487342 74.80490486252188 H 0.0 **** 0.06
8936 C 49.64571232439853 145.88277468587802 15.236449470538005 C 0.0 **** -0.24
8937 H 50.49053009138065 145.77098144905034 15.914862718797657 H 0.0 **** 0.06
8938 H 49.550689110986895 146.9283463257371 14.942291494659877 H 0.0 **** 0.06
8939 H 48.732319477328346 145.56185626741774 15.737418773368283 H 0.0 **** 0.06
8940 H 49.807635700300025 145.2688052780766 14.35024308337352 H 0.0 **** 0.06
8941 C 43.74766612927948 66.31960198315338 37.626619435610735 C 0.0 **** -0.24
8942 H 43.429340657348405 66.9707698859128 36.812578516881274 H 0.0 **** 0.06
8943 H 43.673230740981126 65.27918351253022 37.31021440609328 H 0.0 **** 0.06
8944 H 43.10724480822057 66.48253119274553 38.49345850213439 H 0.0 **** 0.06
8945 H 44.780731358335686 66.54677305262204 37.89074045522585 H 0.0 **** 0.06
8946 C 98.23020099600694 65.37253088674314 56.62755804438065 C 0.0 **** -0.24
8947 H 98.73421420883989 66.28797203822417 56.938365953803 H 0.0 **** 0.06
8948 H 98.96491464795707 64.57595260207326 56.50551593172243 H 0.0 **** 0.06
8949 H 97.71766610515078 65.54400870753473 55.680605710056085 H 0.0 **** 0.06
8950 H 97.50353034546276 65.08333604209743 57.38642131087046 H 0.0 **** 0.06
8951 C 3.0852108915599814 25.05563576737319 130.50696125846105 C 0.0 **** -0.24
8952 H 2.3301123949253366 24.270137214512005 130.54051199809084 H 0.0 **** 0.06
8953 H 2.600123652597105 26.01824124207664 130.34761442189944 H 0.0 **** 0.06
8954 H 3.7791306261133712 24.858054133645794 129.6907607746782 H 0.0 **** 0.06
8955 H 3.62987579161841 25.07514946673757 131.45054310850924 H 0.0 **** 0.06
8956 C 11.978471548151958 184.41691209593833 10.995368382167584 C 0.0 **** -0.24
8957 H 11.17610418294521 185.07361905704286 11.330498093774786 H 0.0 **** 0.06
8958 H 11.727428927668655 183.38374684641806 11.23706768320168 H 0.0 **** 0.06
8959 H 12.906603966742182 184.69224661389717 11.497380840686802 H 0.0 **** 0.06
8960 H 12.104887787663102 184.5183167701828 9.91780150598067 H 0.0 **** 0.06
8961 C 123.59971231015116 110.13499022762845 73.55204340875788 C 0.0 **** -0.24
8962 H 123.1531063316671 110.15365106214962 72.55777722553992 H 0.0 **** 0.06
8963 H 123.45398861993031 109.1508786981192 73.99700122343286 H 0.0 **** 0.06
8964 H 123.12443613492495 110.89115336412222 74.17812988030772 H 0.0 **** 0.06
8965 H 124.66619264247997 110.3451306303052 73.47534231135756 H 0.0 **** 0.06
8966 C 164.81387790476114 8.969434254198475 115.45841591953763 C 0.0 **** -0.24
8967 H 165.60064094894364 8.26824515891667 115.17850137769199 H 0.0 **** 0.06
8968 H 164.9307825483426 9.245436030645322 116.50710592321468 H 0.0 **** 0.06
8969 H 163.84089710894628 8.5011020186204 115.31185659164032 H 0.0 **** 0.06
8970 H 164.88509439274438 9.862363117960854 114.8376239968515 H 0.0 **** 0.06
8971 C 163.93441247396714 167.66890564269528 180.04799788647097 C 0.0 **** -0.24
8972 H 163.44042334075462 167.38464743947503 180.97722895474408 H 0.0 **** 0.06
8973 H 164.78269495049074 168.31726236647597 180.27155505384934 H 0.0 **** 0.06
8974 H 163.22877125772507 168.19994037904183 179.4090933970855 H 0.0 **** 0.06
8975 H 164.2857603468982 166.77377238578845 179.53411414020488 H 0.0 **** 0.06
8976 C 145.06381141643038 146.1814050831809 71.10351843926748 C 0.0 **** -0.24
8977 H 144.3477689286807 147.00077291065236 71.14880456914227 H 0.0 **** 0.06
8978 H 144.75639500697667 145.4717590681326 70.33454374499712 H 0.0 **** 0.06
8979 H 145.10083479110062 145.67777201641007 72.06938300652985 H 0.0 **** 0.06
8980 H 146.051831522308 146.57466188061593 70.86109574647588 H 0.0 **** 0.06
8981 C 150.33761620421348 7.360978234713691 144.62238020535187 C 0.0 **** -0.24
8982 H 149.97215145044436 8.053637346540086 145.38007355719387 H 0.0 **** 0.06
8983 H 150.9475440840705 7.902504556845052 143.89845436839252 H 0.0 **** 0.06
8984 H 149.49185062159336 6.900701632596679 144.11294389200708 H 0.0 **** 0.06
8985 H 150.94081733210803 6.58771639419146 145.0990372208277 H 0.0 **** 0.06
8986 C 59.25539459630916 178.5474582715725 9.488932452081116 C 0.0 **** -0.24
8987 H 59.77280138297945 177.59167028664817 9.573465967511765 H 0.0 **** 0.06
8988 H 58.37442389467688 178.42799049621533 8.856953434870945 H 0.0 **** 0.06
8989 H 59.92463450401635 179.28459315609177 9.045588946661894 H 0.0 **** 0.06
8990 H 58.949624063977254 178.88334945980114 10.479861742362885 H 0.0 **** 0.06
8991 C 69.85479267104733 15.79132715309953 63.23273325404902 C 0.0 **** -0.24
8992 H 70.79299915795747 15.553511567698536 62.73144022797025 H 0.0 **** 0.06
8993 H 69.45952692613065 16.728150970351578 62.8401297806753 H 0.0 **** 0.06
8994 H 70.03109995359253 15.891174246424612 64.30405518519815 H 0.0 **** 0.06
8995 H 69.13640963785531 14.991048900004415 63.055784414686244 H 0.0 **** 0.06
8996 C 140.49279163987734 99.30159527000471 84.98348412525361 C 0.0 **** -0.24
8997 H 141.1353551537432 99.87892265800492 85.6484800565603 H 0.0 **** 0.06
8998 H 139.5580697596602 99.83963802781632 84.82411859337661 H 0.0 **** 0.06
8999 H 140.28218903667914 98.3320032273448 85.43398735563913 H 0.0 **** 0.06
9000 H 140.9967096180136 99.1566290974388 84.027396855802 H 0.0 **** 0.06
9001 C 82.03228546286584 30.265435375117562 144.90900689792088 C 0.0 **** -0.24
9002 H 82.6165929246966 29.83714072397609 145.72328439365901 H 0.0 **** 0.06
9003 H 82.69730630181881 30.789402766803136 144.2218148997863 H 0.0 **** 0.06
9004 H 81.30198497952995 30.965824476373257 145.3142718416688 H 0.0 **** 0.06
9005 H 81.51373017662875 29.46848810395545 144.3756600738471 H 0.0 **** 0.06
9006 C 11.892785889283147 10.469683386807134 156.80077851033647 C 0.0 **** -0.24
9007 H 12.407488447703003 10.255022667320986 157.73719316707897 H 0.0 **** 0.06
9008 H 12.19205230672975 11.454628272391062 156.43900287865137 H 0.0 **** 0.06
9009 H 10.815383351682215 10.456035651813835 156.96662749004662 H 0.0 **** 0.06
9010 H 12.15606721201533 9.714769457434016 156.0603899299964 H 0.0 **** 0.06
9011 C 49.708829650244695 10.625451066981249 24.64262010695927 C 0.0 **** -0.24
9012 H 48.66286408323708 10.873407648541367 24.464370535628348 H 0.0 **** 0.06
9013 H 50.34084314832893 11.436749873588724 24.281083726881434 H 0.0 **** 0.06
9014 H 49.95969018986139 9.705912187803072 24.114964373606597 H 0.0 **** 0.06
9015 H 49.872383119143024 10.487403851143036 25.71179390617408 H 0.0 **** 0.06
9016 C 116.65107262818496 107.58488858942098 4.823037564562995 C 0.0 **** -0.24
9017 H 117.23601375485639 107.61927944041457 5.741607913751899 H 0.0 **** 0.06
9018 H 115.60313116880137 107.77527330011628 5.052828124294358 H 0.0 **** 0.06
9019 H 116.75063276327158 106.60060598763965 4.3656199228733 H 0.0 **** 0.06
9020 H 117.01567135694667 108.34565946493905 4.131848127128805 H 0.0 **** 0.06
9021 C 11.014037056200834 147.4762703814108 117.52329804749671 C 0.0 **** -0.24
9022 H 10.886363779311353 148.55757430343962 117.57252935713562 H 0.0 **** 0.06
9023 H 11.057647304939536 147.16223123687675 116.48001527357333 H 0.0 **** 0.06
9024 H 10.172527312706762 146.98853917028248 118.01439982743385 H 0.0 **** 0.06
9025 H 11.939609827845715 147.1967368150443 118.02624773184404 H 0.0 **** 0.06
9026 C 104.52802993188283 173.35009412188097 153.0950310706791 C 0.0 **** -0.24
9027 H 104.70648787683012 173.39391696866585 154.1696648202173 H 0.0 **** 0.06
9028 H 103.45605255205487 173.40545055305682 152.90245496849434 H 0.0 **** 0.06
9029 H 104.92050025237546 172.41354074830127 152.69890837680055 H 0.0 **** 0.06
9030 H 105.02897998539999 174.18845493699934 152.6092249437884 H 0.0 **** 0.06
9031 C 104.10895416409467 175.92207711420696 101.01974938334814 C 0.0 **** -0.24
9032 H 103.85412055278404 176.70069492782403 100.30056060291247 H 0.0 **** 0.06
9033 H 104.63633707714091 176.3667754889329 101.86463459552903 H 0.0 **** 0.06
9034 H 104.74856372353575 175.18064802697606 100.54069417935273 H 0.0 **** 0.06
9035 H 103.19658208935799 175.44116375270443 101.37302818144377 H 0.0 **** 0.06
9036 C 24.750679340796097 81.07281216378237 89.07901292582277 C 0.0 **** -0.24
9037 H 24.23334320462581 80.31054021878663 88.49625725473605 H 0.0 **** 0.06
9038 H 24.383369222928934 81.05599464326775 90.10514294318644 H 0.0 **** 0.06
9039 H 24.562768205382042 82.0533271248812 88.64128220372912 H 0.0 **** 0.06
9040 H 25.820735158522126 80.87019145986517 89.07154889294405 H 0.0 **** 0.06
9041 C 81.452339012386 62.010473921651794 54.866686161338805 C 0.0 **** -0.24
9042 H 80.58296345610682 61.776128583946786 54.252563402817145 H 0.0 **** 0.06
9043 H 82.26712929107032 61.330335504797205 54.61739935545262 H 0.0 **** 0.06
9044 H 81.19475722995884 61.897906733868695 55.919284655148374 H 0.0 **** 0.06
9045 H 81.76472592631109 63.03740897973569 54.676105009063235 H 0.0 **** 0.06
9046 C 4.870990552812771 150.34163324368885 160.92876807629244 C 0.0 **** -0.24
9047 H 3.832217595565311 150.59893699748852 161.135184836441 H 0.0 **** 0.06
9048 H 5.294428206379592 149.82586920223335 161.79058207516755 H 0.0 **** 0.06
9049 H 5.437815506088185 151.2517604144157 160.73428066669868 H 0.0 **** 0.06
9050 H 4.9167639742994425 149.69057593550974 160.05609143253014 H 0.0 **** 0.06
9051 C 110.6825284770199 111.18601285227112 90.16110917609548 C 0.0 **** -0.24
9052 H 110.5356741558603 111.18121382135598 91.24066515629956 H 0.0 **** 0.06
9053 H 109.89253341924189 110.60384589813242 89.68558332510965 H 0.0 **** 0.06
9054 H 111.6512148992561 110.74728766430752 89.92327484162747 H 0.0 **** 0.06
9055 H 110.64834475112673 112.21234387634871 89.79462386500397 H 0.0 **** 0.06
9056 C 181.8985305287132 146.99097052096283 49.29732671951564 C 0.0 **** -0.24
9057 H 181.53684324789162 147.83508676392802 49.88471198416926 H 0.0 **** 0.06
9058 H 181.65219877740623 147.14753016226956 48.24681963892061 H 0.0 **** 0.06
9059 H 181.42608957994605 146.07442766471434 49.6493666080288 H 0.0 **** 0.06
9060 H 182.97929038729126 146.90755967477196 49.40778530795819 H 0.0 **** 0.06
9061 C 100.06056406558419 158.311398038516 90.22837717006786 C 0.0 **** -0.24
9062 H 98.99479925566654 158.1735826145752 90.04451946513456 H 0.0 **** 0.06
9063 H 100.53958050605114 158.69089352650175 89.32558993191174 H 0.0 **** 0.06
9064 H 100.50821411109955 157.35655337118547 90.50532207238837 H 0.0 **** 0.06
9065 H 100.19851258601649 159.0260815846994 91.04060129711257 H 0.0 **** 0.06
9066 C 115.27801781817364 31.880795068035937 13.831305561046285 C 0.0 **** -0.24
9067 H 114.65276816514593 30.996750225743554 13.706281757472809 H 0.0 **** 0.06
9068 H 114.90511667402224 32.472647527570686 14.667049995021692 H 0.0 **** 0.06
9069 H 115.24888382868899 32.478614564989215 12.920291606734125 H 0.0 **** 0.06
9070 H 116.30445569334687 31.573442296423977 14.032151104358938 H 0.0 **** 0.06
9071 C 33.44311352913266 178.93760267182688 179.8062558803856 C 0.0 **** -0.24
9072 H 32.81825339352318 178.97761887056512 178.9139762825226 H 0.0 **** 0.06
9073 H 33.33955400350068 179.86937816474088 180.3638850247359 H 0.0 **** 0.06
9074 H 34.48455942335747 178.8022124530786 179.5151128030801 H 0.0 **** 0.06
9075 H 33.1291542693893 178.10218827675533 180.43244335009197 H 0.0 **** 0.06
9076 C 102.63636324636771 167.24533111155225 147.25225220701515 C 0.0 **** -0.24
9077 H 102.52535037952067 166.16498152605618 147.34885084696992 H 0.0 **** 0.06
9078 H 103.55350907124269 167.46847435152065 146.70710911177056 H 0.0 **** 0.06
9079 H 102.68424273338142 167.69538276941688 148.24358686815617 H 0.0 **** 0.06
9080 H 101.78255504241717 167.65087349524 146.7100610300554 H 0.0 **** 0.06
9081 C 178.50806110794088 60.63684240903362 86.25182515381168 C 0.0 **** -0.24
9082 H 179.39793248236208 61.19949095955688 85.96877936227902 H 0.0 **** 0.06
9083 H 177.6878638952707 61.328781556195466 86.44578426655674 H 0.0 **** 0.06
9084 H 178.715628653007 60.057143884333996 87.15038881855291 H 0.0 **** 0.06
9085 H 178.2312021767881 59.963407181858855 85.44041434453116 H 0.0 **** 0.06
9086 C 181.15382411734538 161.25843346440828 131.91480941503858 C 0.0 **** -0.24
9087 H 181.74843736508728 162.11122433265527 131.5893341464174 H 0.0 **** 0.06
9088 H 181.78487875742383 160.56861206909076 132.47529389305032 H 0.0 **** 0.06
9089 H 180.743061595117 160.74870315811148 131.04307061372106 H 0.0 **** 0.06
9090 H 180.33907463521848 161.60462050200698 132.5502558436121 H 0.0 **** 0.06
9091 C 39.90843277251025 129.90308061183583 40.03700773363312 C 0.0 **** -0.24
9092 H 39.48106368119949 129.2186399192355 39.303885661311085 H 0.0 **** 0.06
9093 H 40.9969573446686 129.84655117053563 39.99466289807643 H 0.0 **** 0.06
9094 H 39.56795593694528 129.6260556924177 41.03430711757244 H 0.0 **** 0.06
9095 H 39.587903866339616 130.92043759016383 39.81281504851512 H 0.0 **** 0.06
9096 C 56.85626995101012 89.37437130347786 184.55773626960706 C 0.0 **** -0.24
9097 H 55.99330701684147 90.02381747302178 184.4140769985877 H 0.0 **** 0.06
9098 H 57.61174350159337 89.6036513867644 183.80563139494902 H 0.0 **** 0.06
9099 H 56.548209518293845 88.3334071807509 184.45894946748763 H 0.0 **** 0.06
9100 H 57.27111599486636 89.53730745729962 185.55241809375894 H 0.0 **** 0.06
9101 C 96.85882712138556 7.340078236939746 42.10128647262144 C 0.0 **** -0.24
9102 H 97.05156413945497 6.3122919577721746 41.792237622569075 H 0.0 **** 0.06
9103 H 96.01679611599712 7.359049361867164 42.79261072788475 H 0.0 **** 0.06
9104 H 96.6233475009019 7.944341348288816 41.224362963794434 H 0.0 **** 0.06
9105 H 97.7434288928207 7.743062793397968 42.5931934622857 H 0.0 **** 0.06
9106 C 124.45986155984849 131.15438416905317 81.47327040435263 C 0.0 **** -0.24
9107 H 124.67301290502655 130.21183743685384 81.97690073436044 H 0.0 **** 0.06
9108 H 123.8179571131754 130.9680500854538 80.61210395095391 H 0.0 **** 0.06
9109 H 125.39469495745203 131.60618808957759 81.13982456597202 H 0.0 **** 0.06
9110 H 123.95607687486995 131.82956967821417 82.16464358287314 H 0.0 **** 0.06
9111 C 181.0380006845109 50.53542467272047 117.76640474842468 C 0.0 **** -0.24
9112 H 181.06987075577229 49.88805625793444 118.64256614273073 H 0.0 **** 0.06
9113 H 181.67108426894055 51.40657537715319 117.93565011602219 H 0.0 **** 0.06
9114 H 180.01275441894975 50.859309421045566 117.590851061361 H 0.0 **** 0.06
9115 H 181.3994763247802 49.986664677543985 116.89591452543165 H 0.0 **** 0.06
9116 C 105.8136982573393 6.124507149456022 135.07287519889422 C 0.0 **** -0.24
9117 H 106.68089664026036 6.539122602278795 135.5878182821171 H 0.0 **** 0.06
9118 H 106.01001022916108 6.091296641516358 134.00111867799978 H 0.0 **** 0.06
9119 H 104.94362075386164 6.752755603242939 135.2641012074044 H 0.0 **** 0.06
9120 H 105.62137316687478 5.1159782989198135 135.43917560186168 H 0.0 **** 0.06
9121 C 168.65008953296683 104.34543349852522 90.3707863800433 C 0.0 **** -0.24
9122 H 169.49960433326646 104.98593334032869 90.136020766171 H 0.0 **** 0.06
9123 H 168.74451582608808 103.40303942292222 89.83073317993187 H 0.0 **** 0.06
9124 H 167.72723975572447 104.8439679739164 90.07283160151307 H 0.0 **** 0.06
9125 H 168.6269892253241 104.149580945605 91.4424008141796 H 0.0 **** 0.06
9126 C 133.29719962390885 129.1366173474192 163.7020736516762 C 0.0 **** -0.24
9127 H 134.09472148370793 129.73699709611725 163.26531126448356 H 0.0 **** 0.06
9128 H 133.71494891607767 128.4795057150501 164.4657438876609 H 0.0 **** 0.06
9129 H 132.82613756870256 128.53619502831782 162.92359568133588 H 0.0 **** 0.06
9130 H 132.55402334267882 129.7930137515374 164.15424300832694 H 0.0 **** 0.06
9131 C 14.873517477583533 89.84532323827635 182.17420090131546 C 0.0 **** -0.24
9132 H 15.788767758655567 90.23603388119669 182.6189137073592 H 0.0 **** 0.06
9133 H 14.125962344122527 89.69662256925893 182.95390906229517 H 0.0 **** 0.06
9134 H 15.084924050419993 88.89291268026578 181.6879820665487 H 0.0 **** 0.06
9135 H 14.495843999520794 90.55400410543054 181.4379994988572 H 0.0 **** 0.06
9136 C 48.62970355490222 90.84445829409263 8.96696387168771 C 0.0 **** -0.24
9137 H 48.64241873899607 91.78267082635192 8.41196032231619 H 0.0 **** 0.06
9138 H 48.76009442657511 91.04959032167311 10.02999701333215 H 0.0 **** 0.06
9139 H 49.44038238692815 90.20530802746192 8.617335315191184 H 0.0 **** 0.06
9140 H 47.67552525781315 90.34185588307251 8.807417742429607 H 0.0 **** 0.06
9141 C 15.80244395181876 173.50961878715162 29.756191308902714 C 0.0 **** -0.24
9142 H 16.072812856084795 172.46731246377823 29.92570989329154 H 0.0 **** 0.06
9143 H 15.874665435397475 173.735927346442 28.692919081871025 H 0.0 **** 0.06
9144 H 16.481952442623566 174.15610823045034 30.31316439467149 H 0.0 **** 0.06
9145 H 14.780625935828624 173.67929803064317 30.09578115382095 H 0.0 **** 0.06
9146 C 140.1997446811987 104.6788663003647 28.562369990052844 C 0.0 **** -0.24
9147 H 139.72360228798163 105.32913963121497 29.29559530137078 H 0.0 **** 0.06
9148 H 139.46841761578497 104.3797811868029 27.811754128307257 H 0.0 **** 0.06
9149 H 140.59100440330593 103.79337746108645 29.062133614010804 H 0.0 **** 0.06
9150 H 141.01737721982886 105.21415021484255 28.079902872952914 H 0.0 **** 0.06
9151 C 8.020677613180737 25.214190196229566 7.697368911816795 C 0.0 **** -0.24
9152 H 8.752014626746018 24.629838372105496 7.13809929329409 H 0.0 **** 0.06
9153 H 7.189916326208845 24.572204409230892 7.989889494092495 H 0.0 **** 0.06
9154 H 7.650261671903195 26.026215154668733 7.072505059065236 H 0.0 **** 0.06
9155 H 8.492606330348849 25.627482806999183 8.589754989122582 H 0.0 **** 0.06
9156 C 85.35143931666526 142.50539454716693 160.03835922495065 C 0.0 **** -0.24
9157 H 85.97339478753615 142.45362823128823 160.93218192104666 H 0.0 **** 0.06
9158 H 84.30216007725431 142.4150625405352 160.31944741557476 H 0.0 **** 0.06
9159 H 85.61849986570827 141.69342449827133 159.36231658213876 H 0.0 **** 0.06
9160 H 85.51330017486741 143.46130862936857 159.53928837177187 H 0.0 **** 0.06
9161 C 163.25172839634638 14.542530383290142 8.279081402710801 C 0.0 **** -0.24
9162 H 163.730344304513 14.541164200948174 7.300075123343959 H 0.0 **** 0.06
9163 H 163.83265248507 15.158288687038578 8.966158758372956 H 0.0 **** 0.06
9164 H 163.19945020726422 13.522311197836444 8.65905793402385 H 0.0 **** 0.06
9165 H 162.2445773060293 14.948551365648768 8.190059032546287 H 0.0 **** 0.06
9166 C 155.27538536570884 143.17860368713644 43.71735821931367 C 0.0 **** -0.24
9167 H 154.46341361682238 143.89472580024986 43.84314119746951 H 0.0 **** 0.06
9168 H 156.0343631873605 143.35271283430131 44.4803975671888 H 0.0 **** 0.06
9169 H 155.71782886696224 143.30098620696197 42.72897336572552 H 0.0 **** 0.06
9170 H 154.88427399540487 142.1660495836224 43.81740545910991 H 0.0 **** 0.06
9171 C 75.32637326889494 101.5014697117348 94.95722201659258 C 0.0 **** -0.24
9172 H 75.65756326198027 101.11360783208839 95.92107508609159 H 0.0 **** 0.06
9173 H 75.38084393222914 100.70887943520795 94.2104054505149 H 0.0 **** 0.06
9174 H 75.96926659160442 102.32847578065271 94.6584788808127 H 0.0 **** 0.06
9175 H 74.29802007869 101.85156858272045 95.04171366181227 H 0.0 **** 0.06
9176 C 155.4546896854267 153.45998654172587 160.41117655229775 C 0.0 **** -0.24
9177 H 154.8213659966474 153.7512708709872 159.57309963856835 H 0.0 **** 0.06
9178 H 156.24933817045383 152.8037115175489 160.05378980764098 H 0.0 **** 0.06
9179 H 154.85441619515075 152.9331990008639 161.15270064276032 H 0.0 **** 0.06
9180 H 155.89308835865768 154.34939970444094 160.86264545166574 H 0.0 **** 0.06
9181 C 168.74113338581498 164.8465665311074 106.99608661437115 C 0.0 **** -0.24
9182 H 169.74320177750445 164.5304323650225 106.70461360743217 H 0.0 **** 0.06
9183 H 168.80685999447365 165.75547981767986 107.59392857309093 H 0.0 **** 0.06
9184 H 168.26735654729148 164.05839194169644 107.58204796988032 H 0.0 **** 0.06
9185 H 168.14747902468406 165.04136047399575 106.10304508264433 H 0.0 **** 0.06
9186 C 149.11964670214886 7.073542443416045 161.52020308735882 C 0.0 **** -0.24
9187 H 149.83931055945834 6.3085508383910565 161.81230948690123 H 0.0 **** 0.06
9188 H 148.1226582389795 6.636239642086821 161.47576655907937 H 0.0 **** 0.06
9189 H 149.38765177697874 7.469130954234743 160.5400381030902 H 0.0 **** 0.06
9190 H 149.13100227419125 7.881148288721704 162.25248665608484 H 0.0 **** 0.06
9191 C 106.71895238380189 162.6355998654601 153.4805369229993 C 0.0 **** -0.24
9192 H 107.70013062074518 162.77360379567253 153.93330011983622 H 0.0 **** 0.06
9193 H 106.36166437394517 163.5898421582741 153.09028271369425 H 0.0 **** 0.06
9194 H 106.02107191941973 162.26657832715995 154.2317348398975 H 0.0 **** 0.06
9195 H 106.79229936276046 161.91448224719636 152.66721291961335 H 0.0 **** 0.06
9196 C 141.029700990324 36.83171119969829 108.96245633607568 C 0.0 **** -0.24
9197 H 140.88557720085248 37.486207577400364 109.82155363292254 H 0.0 **** 0.06
9198 H 140.37088063839013 35.96696297406527 109.05075498349937 H 0.0 **** 0.06
9199 H 142.06659280459525 36.497064499347786 108.92992455359281 H 0.0 **** 0.06
9200 H 140.7940944368146 37.37549861062749 108.04770874038398 H 0.0 **** 0.06
9201 C 104.34593304553071 117.6565188738907 148.30468437295588 C 0.0 **** -0.24
9202 H 105.19569659402931 117.27982111012345 147.73550244570492 H 0.0 **** 0.06
9203 H 103.90404433238929 118.50368219932015 147.780388633963 H 0.0 **** 0.06
9204 H 104.68345213090483 117.97549602654489 149.2911689516463 H 0.0 **** 0.06
9205 H 103.60261962022294 116.86675291778648 148.41243057213023 H 0.0 **** 0.06
9206 C 53.315397717633175 94.96664953629721 53.04010840042042 C 0.0 **** -0.24
9207 H 52.27348759306267 94.77325399091359 53.29469985940125 H 0.0 **** 0.06
9208 H 53.472826050370884 96.04167384568899 52.94361768196728 H 0.0 **** 0.06
9209 H 53.55537855656149 94.47762535981263 52.09547569994032 H 0.0 **** 0.06
9210 H 53.961066372407856 94.5742650238654 53.82538015664272 H 0.0 **** 0.06
9211 C 6.355630361455042 155.6648249841604 96.85342906182699 C 0.0 **** -0.24
9212 H 7.154841731838218 155.44124403168684 96.14640776170388 H 0.0 **** 0.06
9213 H 5.643747427572521 156.34881716480064 96.39209108104804 H 0.0 **** 0.06
9214 H 6.778709265129351 156.12730013649636 97.74523192130174 H 0.0 **** 0.06
9215 H 5.846377324974725 154.74113321978382 97.12984768185176 H 0.0 **** 0.06
9216 C 100.41905589725457 64.16849928935645 180.084502778286 C 0.0 **** -0.24
9217 H 100.44016437455491 63.70267646105029 181.0697676614757 H 0.0 **** 0.06
9218 H 99.4836773384182 63.91683112048986 179.58431735626434 H 0.0 **** 0.06
9219 H 101.2587485035184 63.80332215504281 179.49247797198203 H 0.0 **** 0.06
9220 H 100.49442230950245 65.25011672332236 180.19257670098395 H 0.0 **** 0.06
9221 C 35.627201434050434 148.96404027822257 80.4343166552099 C 0.0 **** -0.24
9222 H 36.31883467577772 149.27878581458899 81.2155061706453 H 0.0 **** 0.06
9223 H 34.912747167113494 148.25171417577812 80.8472331039806 H 0.0 **** 0.06
9224 H 36.183164951549614 148.49409591681027 79.62433938650777 H 0.0 **** 0.06
9225 H 35.091980532187776 149.83408532533295 80.05171424016602 H 0.0 **** 0.06
9226 C 152.75027993690327 119.61751812245059 110.16437310304356 C 0.0 **** -0.24
9227 H 152.01847521311805 119.04492471793445 110.73398437097104 H 0.0 **** 0.06
9228 H 153.73159637586798 119.5169671781001 110.62878879404293 H 0.0 **** 0.06
9229 H 152.45983632521845 120.66736942888689 110.14987921659021 H 0.0 **** 0.06
9230 H 152.79183348246505 119.23776809521338 109.14275349625218 H 0.0 **** 0.06
9231 C 161.810630547802 3.117525890186748 62.792591745042415 C 0.0 **** -0.24
9232 H 162.5618946910104 2.5600678945096718 62.23289437929465 H 0.0 **** 0.06
9233 H 162.13815561266 4.150921713332956 62.91038729409682 H 0.0 **** 0.06
9234 H 161.6786049458527 2.663347588298002 63.77469035354258 H 0.0 **** 0.06
9235 H 160.86480878415784 3.0961405946678866 62.25140857904333 H 0.0 **** 0.06
9236 C 87.12778762616962 65.90279949189691 59.180330624670376 C 0.0 **** -0.24
9237 H 86.25557938716305 65.49514948947879 59.69196784116019 H 0.0 **** 0.06
9238 H 87.85729985406307 65.10914644374883 59.01852482902149 H 0.0 **** 0.06
9239 H 87.57346164390289 66.68803466295174 59.79121831215869 H 0.0 **** 0.06
9240 H 86.82387577918148 66.31901345189436 58.21993805481341 H 0.0 **** 0.06
9241 C 39.774114875838166 65.24149026755572 98.67172493861182 C 0.0 **** -0.24
9242 H 38.85932161210667 65.26533066740694 99.26357058839096 H 0.0 **** 0.06
9243 H 39.668425033467315 65.90398852577641 97.81250198492785 H 0.0 **** 0.06
9244 H 39.95555343279949 64.22300544203699 98.32525974985032 H 0.0 **** 0.06
9245 H 40.61240223319123 65.57134304603892 99.28515855972512 H 0.0 **** 0.06
9246 C 146.71925205437918 102.02797476167872 111.59958994135077 C 0.0 **** -0.24
9247 H 147.43171025818071 101.21552058882521 111.74007435712242 H 0.0 **** 0.06
9248 H 147.23182066051538 102.89168073030781 111.17619794349399 H 0.0 **** 0.06
9249 H 146.28326849529088 102.29919965833291 112.56136266317138 H 0.0 **** 0.06
9250 H 145.92922286855736 101.70549938388235 110.92089199975227 H 0.0 **** 0.06
9251 C 162.93253335964238 76.52953524727249 23.35718621142854 C 0.0 **** -0.24
9252 H 162.4717701159338 76.2893614478873 24.314597881512242 H 0.0 **** 0.06
9253 H 162.1882675475447 76.45323747795426 22.56480410492553 H 0.0 **** 0.06
9254 H 163.74600505866692 75.83080847008424 23.16078086645534 H 0.0 **** 0.06
9255 H 163.32649558786858 77.5451978281116 23.38859702908374 H 0.0 **** 0.06
9256 C 162.3940302847289 101.05598641842526 61.876741015590156 C 0.0 **** -0.24
9257 H 163.23046496180095 101.7261230750975 61.67811257599871 H 0.0 **** 0.06
9258 H 162.1595417813407 101.07444553958562 62.94090677229747 H 0.0 **** 0.06
9259 H 162.66414392976924 100.04190502813104 61.581239866314775 H 0.0 **** 0.06
9260 H 161.5243318108165 101.38084289915746 61.30687334771183 H 0.0 **** 0.06
9261 C 63.28648298618225 6.859089582293819 128.2157505495024 C 0.0 **** -0.24
9262 H 62.656297885243646 6.785378225343436 129.10188864841837 H 0.0 **** 0.06
9263 H 64.16949019792486 6.233162371656022 128.34460998435924 H 0.0 **** 0.06
9264 H 63.59193010540602 7.89546455895433 128.0717910824065 H 0.0 **** 0.06
9265 H 62.72530609778106 6.5213736618204905 127.34394676267392 H 0.0 **** 0.06
9266 C 121.12757947116062 184.228387758862 178.87532651489 C 0.0 **** -0.24
9267 H 121.35658275189708 183.16306925329275 178.84817247533948 H 0.0 **** 0.06
9268 H 121.85557456219978 184.7716906391741 178.2718594311371 H 0.0 **** 0.06
9269 H 121.1727289958266 184.58336494630976 179.90616410810537 H 0.0 **** 0.06
9270 H 120.12750710075669 184.3950369828851 178.47746396754368 H 0.0 **** 0.06
9271 C 101.74471798441017 52.62525468455232 51.5229552960449 C 0.0 **** -0.24
9272 H 102.47598779077613 52.328723121068606 52.27480226310382 H 0.0 **** 0.06
9273 H 101.3994324261351 51.74191414650835 50.984760380961575 H 0.0 **** 0.06
9274 H 102.20562274071288 53.32149535301403 50.82293095462575 H 0.0 **** 0.06
9275 H 100.8985289335066 53.10818917335007 52.01106667509478 H 0.0 **** 0.06
9276 C 174.1451506438258 183.76062566492342 111.89533982956324 C 0.0 **** -0.24
9277 H 173.47077853371013 182.92719195999015 111.69814732448235 H 0.0 **** 0.06
9278 H 174.02800778499386 184.08575031794476 112.92940457080364 H 0.0 **** 0.06
9279 H 173.90851911300933 184.5863362386316 111.22504295107719 H 0.0 **** 0.06
9280 H 175.17504457477202 183.44204086743275 111.72950370559387 H 0.0 **** 0.06
9281 C 40.611635008009216 15.984172238745145 26.90754825067006 C 0.0 **** -0.24
9282 H 39.6837779282846 15.440413289487452 27.08820493001275 H 0.0 **** 0.06
9283 H 40.93418214553793 15.821194656574193 25.87934009674626 H 0.0 **** 0.06
9284 H 41.38078714421516 15.625806926457301 27.592123791745735 H 0.0 **** 0.06
9285 H 40.446383745826495 17.048624123805325 27.072888984029532 H 0.0 **** 0.06
9286 C 21.48470768542043 143.85156728730277 154.83921343759232 C 0.0 **** -0.24
9287 H 22.22454969012479 143.4931449642463 155.55378363612954 H 0.0 **** 0.06
9288 H 21.157034048633925 143.02326671897907 154.20993801892124 H 0.0 **** 0.06
9289 H 21.92800154527977 144.62836520430383 154.2165209753713 H 0.0 **** 0.06
9290 H 20.628227741359623 144.26060467570005 155.37619100791318 H 0.0 **** 0.06
9291 C 62.88282653489529 13.576077851360935 168.18203487751347 C 0.0 **** -0.24
9292 H 63.334378454224236 13.793421950017908 169.15025064992608 H 0.0 **** 0.06
9293 H 61.90044236307493 14.045880432231812 168.12657086981187 H 0.0 **** 0.06
9294 H 62.77702075046345 12.49663028516634 168.06549948584384 H 0.0 **** 0.06
9295 H 63.51911896858218 13.966256563239604 167.38871285308042 H 0.0 **** 0.06
9296 C 173.86166918310826 164.44560036291114 60.7684058850939 C 0.0 **** -0.24
9297 H 173.31125657787578 164.02844896334352 61.61214165876885 H 0.0 **** 0.06
9298 H 174.67373400613792 165.07127392676563 61.13867291812022 H 0.0 **** 0.06
9299 H 173.18861055546395 165.04623869422295 60.15753027312576 H 0.0 **** 0.06
9300 H 174.27267776570994 163.6352851307588 60.16715177352751 H 0.0 **** 0.06
9301 C 87.61443991590914 98.31065811236073 19.91278788947568 C 0.0 **** -0.24
9302 H 86.66530659442901 98.59769034401853 20.364742294804188 H 0.0 **** 0.06
9303 H 88.10639784787816 99.19490324738399 19.508709586327626 H 0.0 **** 0.06
9304 H 87.43232093734713 97.59644936031759 19.109018688063145 H 0.0 **** 0.06
9305 H 88.2526562756554 97.85267429451966 20.668662265092223 H 0.0 **** 0.06
9306 C 19.974246137562915 33.27062550698719 88.76325476191612 C 0.0 **** -0.24
9307 H 20.7995182044113 33.8440441131674 88.34169993942349 H 0.0 **** 0.06
9308 H 19.88853357523297 33.48806738325578 89.82848702818659 H 0.0 **** 0.06
9309 H 20.162949875431707 32.20633652770846 88.62403112430799 H 0.0 **** 0.06
9310 H 19.04694567218519 33.54472227714626 88.26095191355107 H 0.0 **** 0.06
9311 C 124.5171740840882 53.989993520166365 111.94514413049886 C 0.0 **** -0.24
9312 H 123.91860544386202 54.79454960414259 111.5191541914143 H 0.0 **** 0.06
9313 H 125.15504833485375 53.56312211576099 111.16994566860946 H 0.0 **** 0.06
9314 H 123.85880859453704 53.21693049613921 112.34105295736056 H 0.0 **** 0.06
9315 H 125.1377091213979 54.38597275322101 112.74885432114478 H 0.0 **** 0.06
9316 C 121.96272696604832 65.77445632556343 34.681603546280684 C 0.0 **** -0.24
9317 H 121.1103788893764 66.33654466650489 35.06317767386798 H 0.0 **** 0.06
9318 H 121.6058938262063 64.89468076618054 34.144965429267046 H 0.0 **** 0.06
9319 H 122.59362214267485 65.46209404793842 35.51477248956648 H 0.0 **** 0.06
9320 H 122.539266776789 66.40449288420062 34.00489524555107 H 0.0 **** 0.06
9321 C 129.28497953667215 156.89663286539425 170.03807082406155 C 0.0 **** -0.24
9322 H 129.91167302178866 156.2480058521821 170.64886342208254 H 0.0 **** 0.06
9323 H 128.61481199429988 157.46507238610454 170.68287415657755 H 0.0 **** 0.06
9324 H 128.6979956845385 156.29084775467595 169.34773922278092 H 0.0 **** 0.06
9325 H 129.9154362308272 157.583320862165 169.47350523317238 H 0.0 **** 0.06
9326 C 177.08126539388235 146.1200620546466 30.620594690306106 C 0.0 **** -0.24
9327 H 176.49024558439814 145.62469077514572 31.391124541226418 H 0.0 **** 0.06
9328 H 177.495875434916 145.3717945831919 29.944253285047836 H 0.0 **** 0.06
9329 H 177.893725795552 146.6767100368387 31.087906672263358 H 0.0 **** 0.06
9330 H 176.4468834173696 146.80590353563753 30.06004022568142 H 0.0 **** 0.06
9331 C 178.60953803209128 76.64590500702279 5.679516300747572 C 0.0 **** -0.24
9332 H 178.53236180847188 77.64313794941665 6.111513553477899 H 0.0 **** 0.06
9333 H 179.35877895745597 76.65150906693174 4.886660045959843 H 0.0 **** 0.06
9334 H 177.64491218000958 76.35264677391736 5.266284021357414 H 0.0 **** 0.06
9335 H 178.90495501840925 75.93686478453304 6.4528630080038525 H 0.0 **** 0.06
9336 C 76.26042451045646 17.624653863413357 147.03574751744867 C 0.0 **** -0.24
9337 H 76.86191683347488 17.670905449245197 147.94267976340566 H 0.0 **** 0.06
9338 H 76.84636646532533 17.990764213225134 146.19261668313084 H 0.0 **** 0.06
9339 H 75.37136179861136 18.24312197588671 147.1566732717172 H 0.0 **** 0.06
9340 H 75.96247702072196 16.592620620368734 146.8489292681996 H 0.0 **** 0.06
9341 C 43.96724754546614 19.619570816761595 28.39463965546787 C 0.0 **** -0.24
9342 H 44.96253179238704 19.175249061521903 28.3903029370519 H 0.0 **** 0.06
9343 H 43.63144151325213 19.749375659360275 29.42404161970964 H 0.0 **** 0.06
9344 H 43.27441012779883 18.962816274394257 27.86703735559587 H 0.0 **** 0.06
9345 H 43.998852439257575 20.588410143674885 27.897090833415774 H 0.0 **** 0.06
9346 C 18.5320040597515 124.54786924372894 86.25832342004811 C 0.0 **** -0.24
9347 H 18.325147876862843 123.50965247700532 86.51897614111864 H 0.0 **** 0.06
9348 H 19.526380458705177 124.81927488101763 86.6147556783552 H 0.0 **** 0.06
9349 H 17.78923637367933 125.19374624017655 86.72421329881841 H 0.0 **** 0.06
9350 H 18.48943637056334 124.66576606964998 85.17530878182562 H 0.0 **** 0.06
9351 C 143.38801171187885 156.8427776560508 45.154003788912036 C 0.0 **** -0.24
9352 H 142.39064598564113 156.4023145796468 45.14574138745314 H 0.0 **** 0.06
9353 H 143.69907264479846 157.05643601949933 44.130772341329816 H 0.0 **** 0.06
9354 H 144.08979298797323 156.14330445986755 45.608750600605504 H 0.0 **** 0.06
9355 H 143.37186084665728 157.7678960559786 45.730302723439195 H 0.0 **** 0.06
9356 C 30.791873362551257 143.74669200561857 49.968006872252246 C 0.0 **** -0.24
9357 H 30.185732083231528 142.8464321447791 49.86427978396782 H 0.0 **** 0.06
9358 H 30.53438961305585 144.25216102758245 50.90029793223299 H 0.0 **** 0.06
9359 H 30.599922765801182 144.41326752221545 49.127800119174836 H 0.0 **** 0.06
9360 H 31.84771797844644 143.47396518104316 49.98248518285082 H 0.0 **** 0.06
9361 C 30.947460713661826 62.84536017125828 178.07257175807536 C 0.0 **** -0.24
9362 H 30.76208389053187 62.26769640659069 178.97808010661157 H 0.0 **** 0.06
9363 H 31.213800542531487 63.867471884476515 178.3424404553752 H 0.0 **** 0.06
9364 H 30.047386155797483 62.85444458078993 177.45640402852672 H 0.0 **** 0.06
9365 H 31.765574320758446 62.39179199072407 177.51341580083923 H 0.0 **** 0.06
9366 C 58.50231476974518 67.46506045315675 80.82662484945186 C 0.0 **** -0.24
9367 H 58.52816063879183 66.75154104625278 81.64963176675863 H 0.0 **** 0.06
9368 H 58.83380891980313 68.44197212573755 81.18108587664496 H 0.0 **** 0.06
9369 H 57.48348221105927 67.54311736545196 80.44590747046645 H 0.0 **** 0.06
9370 H 59.16349879606901 67.12472856654858 80.02906401916105 H 0.0 **** 0.06
9371 C 78.73628908956994 177.67243647139622 39.53225151163193 C 0.0 **** -0.24
9372 H 79.72617519281619 178.12624412338178 39.5755004485915 H 0.0 **** 0.06
9373 H 78.21603033054635 177.84421134194614 40.47489598164772 H 0.0 **** 0.06
9374 H 78.8359138553368 176.59979535424088 39.36230053538151 H 0.0 **** 0.06
9375 H 78.16782960742313 178.1188896670899 38.716381592686304 H 0.0 **** 0.06
9376 C 164.46671830562477 54.77258316603138 132.973235878195 C 0.0 **** -0.24
9377 H 165.1093654213089 55.570952762904966 133.3442305315828 H 0.0 **** 0.06
9378 H 164.93232572558384 53.808131199381535 133.17644390317622 H 0.0 **** 0.06
9379 H 164.32566013768394 54.88936816184972 131.8996092324386 H 0.0 **** 0.06
9380 H 163.50061960257426 54.82216032508154 133.47458779168858 H 0.0 **** 0.06
9381 C 183.1509965123675 170.67769036674235 169.7202746114915 C 0.0 **** -0.24
9382 H 182.27516084537902 170.5792560560429 169.07883175573352 H 0.0 **** 0.06
9383 H 182.85318928622473 170.56038678888072 170.76259611141884 H 0.0 **** 0.06
9384 H 183.59708588390703 171.6618651925544 169.57779463754247 H 0.0 **** 0.06
9385 H 183.87834173246168 169.9083345148483 169.4622109503452 H 0.0 **** 0.06
9386 C 162.2467123148397 130.67496158929737 49.614454565050664 C 0.0 **** -0.24
9387 H 162.74266379974205 130.33078520954547 50.52274094047243 H 0.0 **** 0.06
9388 H 161.25636489052084 130.22218554498153 49.547572208805605 H 0.0 **** 0.06
9389 H 162.83866044831296 130.38637045653252 48.745625502637154 H 0.0 **** 0.06
9390 H 162.1489900325474 131.76025780519632 49.6432616147581 H 0.0 **** 0.06
9391 C 89.02066115359865 179.6384213402403 78.15654956697081 C 0.0 **** -0.24
9392 H 88.21474893223568 179.22157444126782 77.55189550365175 H 0.0 **** 0.06
9393 H 88.73724669693287 180.63247300803823 78.50386486342259 H 0.0 **** 0.06
9394 H 89.9276448986776 179.70845334390395 77.55531800582004 H 0.0 **** 0.06
9395 H 89.2022065738205 178.99135095270742 79.01453996895025 H 0.0 **** 0.06
9396 C 7.540096477457617 150.50222976619818 52.85426386491534 C 0.0 **** -0.24
9397 H 6.821087454017643 150.27334988327806 53.64090443604306 H 0.0 **** 0.06
9398 H 7.103341882758201 151.22309486397384 52.16250862032888 H 0.0 **** 0.06
9399 H 7.792058451411059 149.5884818567677 52.31513279630258 H 0.0 **** 0.06
9400 H 8.442190806502751 150.9230586956849 53.29804780981232 H 0.0 **** 0.06
9401 C 46.27370101782428 51.10799912527284 16.382149345103187 C 0.0 **** -0.24
9402 H 46.43618321253791 52.18500783207051 16.341074493217178 H 0.0 **** 0.06
9403 H 45.392921027639474 50.89641025680771 16.98840021924039 H 0.0 **** 0.06
9404 H 47.14509707164676 50.627279922562536 16.82707668262978 H 0.0 **** 0.06
9405 H 46.12250127256419 50.7238859047477 15.373071029286223 H 0.0 **** 0.06
9406 C 50.23207611644423 146.70716911492565 145.87453072968316 C 0.0 **** -0.24
9407 H 49.38026735046935 146.8410602130072 146.54056476685878 H 0.0 **** 0.06
9408 H 51.15575577471236 146.74482224267445 146.45382128323567 H 0.0 **** 0.06
9409 H 50.23845097664854 147.5025415253578 145.12879721845513 H 0.0 **** 0.06
9410 H 50.15477012478456 145.7413008080564 145.37507345780958 H 0.0 **** 0.06
9411 C 138.10289487365003 6.850504080902937 7.071733266917249 C 0.0 **** -0.24
9412 H 138.8470469898681 7.639614941573399 7.1711917880674605 H 0.0 **** 0.06
9413 H 137.78338732216537 6.525870279610388 8.062342271287747 H 0.0 **** 0.06
9414 H 138.5379881276212 6.006424984101471 6.536099328315544 H 0.0 **** 0.06
9415 H 137.24312101222517 7.228519233294207 6.5185164773013184 H 0.0 **** 0.06
9416 C 171.5494098885085 118.5962349048584 19.573686516981176 C 0.0 **** -0.24
9417 H 171.8849538434324 118.7846252429208 18.553240668392597 H 0.0 **** 0.06
9418 H 170.46513992552948 118.48000499302988 19.58261098257335 H 0.0 **** 0.06
9419 H 171.82978376530835 119.43597668995618 20.208156014222553 H 0.0 **** 0.06
9420 H 172.01676281069507 117.68537883981712 19.947287677423006 H 0.0 **** 0.06
9421 C 76.26516856163474 49.32235691720504 146.35110468848782 C 0.0 **** -0.24
9422 H 76.08632029696851 50.34319991187452 146.01389817224435 H 0.0 **** 0.06
9423 H 75.32283873438492 48.87630513179553 146.6724685275151 H 0.0 **** 0.06
9424 H 76.96578335024583 49.332705428608136 147.1856148271641 H 0.0 **** 0.06
9425 H 76.68361041860103 48.73710668369915 145.5317391038875 H 0.0 **** 0.06
9426 C 54.700832381343645 128.40442678402013 183.95639741904947 C 0.0 **** -0.24
9427 H 54.226860605523996 127.71075577443126 184.65130724405154 H 0.0 **** 0.06
9428 H 54.466737504897665 129.42771060810054 184.24989046171476 H 0.0 **** 0.06
9429 H 54.326217177746 128.22041798131852 182.94931371811956 H 0.0 **** 0.06
9430 H 55.7797829768848 128.2576458357833 183.97637938150024 H 0.0 **** 0.06
9431 C 155.57973708146852 42.87038431640093 69.3271235067088 C 0.0 **** -0.24
9432 H 156.2208014715559 43.46608903132733 69.97611247172756 H 0.0 **** 0.06
9433 H 154.5542337430144 42.906475067471035 69.6950687875491 H 0.0 **** 0.06
9434 H 155.9278804539765 41.83693289328653 69.32167007039976 H 0.0 **** 0.06
9435 H 155.6164613498299 43.27078180109089 68.31358536437659 H 0.0 **** 0.06
9436 C 96.59534766114996 109.47511292807974 59.344521620151994 C 0.0 **** -0.24
9437 H 96.80236100414135 108.77199010991512 58.537008046529365 H 0.0 **** 0.06
9438 H 97.37361367713669 109.39439578990533 60.10402747195431 H 0.0 **** 0.06
9439 H 95.62800676488138 109.24098525135406 59.78905754272358 H 0.0 **** 0.06
9440 H 96.57790495748787 110.48954888753008 58.94686123105106 H 0.0 **** 0.06
9441 C 89.69766565406047 44.69138515112749 28.669408077486537 C 0.0 **** -0.24
9442 H 90.36538929254834 44.21834948284848 29.390077755022304 H 0.0 **** 0.06
9443 H 89.04962178201328 43.93481656229912 28.225095670778458 H 0.0 **** 0.06
9444 H 90.28677345099493 45.16983263351425 27.888484062889646 H 0.0 **** 0.06
9445 H 89.08842518830232 45.4397453238512 29.175379863551555 H 0.0 **** 0.06
9446 C 71.17441411167493 90.3453983906802 11.11181641857982 C 0.0 **** -0.24
9447 H 70.20344676067862 90.30656239468834 10.618506657349002 H 0.0 **** 0.06
9448 H 71.78501721305292 89.50631216792732 10.775356055153821 H 0.0 **** 0.06
9449 H 71.03577097912495 90.28490831728976 12.191046877800574 H 0.0 **** 0.06
9450 H 71.67303153495254 91.28124063579651 10.859857462059693 H 0.0 **** 0.06
9451 C 131.75345759349028 98.42257691408285 74.34451770276479 C 0.0 **** -0.24
9452 H 130.70647431519086 98.70971538205491 74.43608107598004 H 0.0 **** 0.06
9453 H 131.93397784827562 98.02437498366221 73.34612748880829 H 0.0 **** 0.06
9454 H 131.98765556482135 97.66097111832444 75.08878801878865 H 0.0 **** 0.06
9455 H 132.38491207118335 99.29638093910764 74.5073094352532 H 0.0 **** 0.06
9456 C 25.751115599508523 107.37912287350436 162.16710948279095 C 0.0 **** -0.24
9457 H 25.643435016584164 106.66280730276075 161.3525965859061 H 0.0 **** 0.06
9458 H 24.811991149264955 107.44724326355713 162.7173433181166 H 0.0 **** 0.06
9459 H 26.00592400694653 108.35709543281065 161.75921402691222 H 0.0 **** 0.06
9460 H 26.543283663090108 107.04794777025909 162.8391535228272 H 0.0 **** 0.06
9461 C 17.136259283884165 30.93720954411475 184.12877260169756 C 0.0 **** -0.24
9462 H 17.416473625355515 31.987852223015466 184.20718342759523 H 0.0 **** 0.06
9463 H 17.711438678931188 30.466989817279483 183.33111011810252 H 0.0 **** 0.06
9464 H 16.07197168623916 30.86196238081493 183.90349463494402 H 0.0 **** 0.06
9465 H 17.34430446272149 30.434325755021405 185.07346539527532 H 0.0 **** 0.06
9466 C 24.491100095306876 80.72048637110984 40.29023250767057 C 0.0 **** -0.24
9467 H 25.06438253884292 81.09338852436163 39.44162978515254 H 0.0 **** 0.06
9468 H 23.767142027225248 81.47439590439227 40.5981667135315 H 0.0 **** 0.06
9469 H 25.16668714443483 80.5054028402583 41.11799187557587 H 0.0 **** 0.06
9470 H 23.96786659834288 79.8083827290192 40.00171207870828 H 0.0 **** 0.06
9471 C 31.71030737686749 36.950487415224345 185.1030312578367 C 0.0 **** -0.24
9472 H 32.591668990197405 36.44076169518961 185.49434545476814 H 0.0 **** 0.06
9473 H 31.844524517720004 37.14313070657363 184.03883171199996 H 0.0 **** 0.06
9474 H 31.57536919535528 37.89571024073791 185.62926302445067 H 0.0 **** 0.06
9475 H 30.83235255665693 36.322626771038586 185.25227497877214 H 0.0 **** 0.06
9476 C 160.5385294908249 76.37806428987253 50.409999515130295 C 0.0 **** -0.24
9477 H 159.59908104630622 76.35000765963878 49.85899699204316 H 0.0 **** 0.06
9478 H 160.50398452742422 75.65282018959711 51.22257996521358 H 0.0 **** 0.06
9479 H 160.68994666045594 77.37623869543123 50.8195725043999 H 0.0 **** 0.06
9480 H 161.36178712303297 76.13237977195337 49.73791142993801 H 0.0 **** 0.06
9481 C 166.60325753948385 73.16597362115931 110.90198205212793 C 0.0 **** -0.24
9482 H 166.65683628104483 72.55443515122494 110.00128877393944 H 0.0 **** 0.06
9483 H 167.24856632011785 74.03801036602187 110.78683472650529 H 0.0 **** 0.06
9484 H 166.9333524388787 72.57957812329818 111.75898439767435 H 0.0 **** 0.06
9485 H 165.57537658209853 73.49297901606326 111.05825926491762 H 0.0 **** 0.06
9486 C 136.4525850105593 105.96476364781309 184.51842647707588 C 0.0 **** -0.24
9487 H 136.58445432484524 105.19373809397091 185.27873726088566 H 0.0 **** 0.06
9488 H 136.47633818552953 105.50590443798838 183.52910174808846 H 0.0 **** 0.06
9489 H 137.2579188303671 106.69456370947925 184.59993515623077 H 0.0 **** 0.06
9490 H 135.49477507949535 106.46152171658359 184.66694877828195 H 0.0 **** 0.06
9491 C 3.7804453796252346 16.105070914635235 87.73182157878671 C 0.0 **** -0.24
9492 H 2.860278005573605 16.279856076408265 88.29010961821626 H 0.0 **** 0.06
9493 H 4.226098158206128 17.06256181743936 87.46034200351954 H 0.0 **** 0.06
9494 H 3.5553247722130266 15.53880553467667 86.82861641360279 H 0.0 **** 0.06
9495 H 4.4784984873719225 15.541042343712036 88.35078119252103 H 0.0 **** 0.06
9496 C 40.65175584783219 72.88349197595657 167.46875135624964 C 0.0 **** -0.24
9497 H 40.182163843479486 72.88791556026162 168.45173920583136 H 0.0 **** 0.06
9498 H 40.89972372407556 73.9048198568199 167.18001332266152 H 0.0 **** 0.06
9499 H 39.96360135042727 72.45618233611447 166.73920887664386 H 0.0 **** 0.06
9500 H 41.56118358291144 72.28412536076401 167.50389683181533 H 0.0 **** 0.06
9501 C 166.02684146898235 135.58705611432498 0.3447832178196961 C 0.0 **** -0.24
9502 H 165.69264849427938 135.3447686458801 -0.6643620729267639 H 0.0 **** 0.06
9503 H 165.36841085020637 135.1081501858793 1.0700787546703907 H 0.0 **** 0.06
9504 H 166.00029716724254 136.66711306414004 0.4872041917839738 H 0.0 **** 0.06
9505 H 167.04547472213196 135.22607314240662 0.4857404634879572 H 0.0 **** 0.06
9506 C 180.51021258916495 56.68795636170401 68.51572958297565 C 0.0 **** -0.24
9507 H 179.61500499893071 56.168203581331056 68.85795143291945 H 0.0 **** 0.06
9508 H 181.36930268803667 56.3527982902236 69.09793630120122 H 0.0 **** 0.06
9509 H 180.37905946226277 57.76165404205288 68.64561985210716 H 0.0 **** 0.06
9510 H 180.6773332946796 56.46672467002921 67.46142859201035 H 0.0 **** 0.06
9511 C 18.481737945893997 119.56937638788476 106.71009298118933 C 0.0 **** -0.24
9512 H 18.86632059540389 118.55290518162921 106.62722662575798 H 0.0 **** 0.06
9513 H 17.60830233892068 119.68062699190038 106.06731781457624 H 0.0 **** 0.06
9514 H 19.252347549928402 120.27543420675003 106.40259090240421 H 0.0 **** 0.06
9515 H 18.19921977718508 119.76695872012543 107.74419697626423 H 0.0 **** 0.06
9516 C 83.93935890761082 164.700632584382 11.551279575542765 C 0.0 **** -0.24
9517 H 83.5428396003195 165.66594523585087 11.86902370911315 H 0.0 **** 0.06
9518 H 83.1268561454931 163.97542860628616 11.496939553743175 H 0.0 **** 0.06
9519 H 84.68475928612179 164.35977793795774 12.26891089922367 H 0.0 **** 0.06
9520 H 84.40097814558419 164.8039837078864 10.568454246403746 H 0.0 **** 0.06
9521 C 159.87415888246647 155.62173604393547 97.94260270296492 C 0.0 **** -0.24
9522 H 159.8277676240293 156.3990119475027 98.70591679641556 H 0.0 **** 0.06
9523 H 158.91952423704302 155.0967961756815 97.9021156404233 H 0.0 **** 0.06
9524 H 160.66699438027956 154.91722201841532 98.19122730124606 H 0.0 **** 0.06
9525 H 160.08069673662902 156.0761854859095 96.97416935131209 H 0.0 **** 0.06
9526 C 37.75306874303311 60.77636198772379 155.03615033388184 C 0.0 **** -0.24
9527 H 36.87068586117377 60.88600953080838 154.4046297384966 H 0.0 **** 0.06
9528 H 38.63169676977844 61.129172899464436 154.4954067409596 H 0.0 **** 0.06
9529 H 37.883353674034595 59.72627125015961 155.29820309316702 H 0.0 **** 0.06
9530 H 37.62374084002889 61.36551004311704 155.94439327549105 H 0.0 **** 0.06
9531 C 167.5585629648714 136.62539801372833 126.96125604648438 C 0.0 **** -0.24
9532 H 167.9019293821549 137.5003540207544 127.51336641292585 H 0.0 **** 0.06
9533 H 167.87720990909037 136.70427979059065 125.92179264794203 H 0.0 **** 0.06
9534 H 166.47060707832807 136.571198291536 127.00661853815825 H 0.0 **** 0.06
9535 H 167.9856027397061 135.72552039427927 127.4054234661599 H 0.0 **** 0.06
9536 C 30.807387129453645 161.52284422686336 174.942117367902 C 0.0 **** -0.24
9537 H 31.773033376056446 161.61078153904836 175.4385452909601 H 0.0 **** 0.06
9538 H 30.806639650652755 160.63934234109763 174.30244302629845 H 0.0 **** 0.06
9539 H 30.627247526459144 162.4107107053242 174.33604294786906 H 0.0 **** 0.06
9540 H 30.021182830398914 161.42797983941452 175.6920259926049 H 0.0 **** 0.06
9541 C 158.2055131865765 22.42833556182842 111.60138023982783 C 0.0 **** -0.24
9542 H 159.01514938401183 21.699970285816335 111.53842261603465 H 0.0 **** 0.06
9543 H 157.7807374657227 22.41346719853476 112.60452472274282 H 0.0 **** 0.06
9544 H 157.43301152699848 22.175040321675652 110.87547799827506 H 0.0 **** 0.06
9545 H 158.59535421053582 23.423636410679805 111.38546686107277 H 0.0 **** 0.06
9546 C 176.40239810641026 161.39097580368525 25.710931850605448 C 0.0 **** -0.24
9547 H 177.27156405093197 160.76877730200772 25.498868334162893 H 0.0 **** 0.06
9548 H 176.14368509390653 161.96793024228288 24.82346213332167 H 0.0 **** 0.06
9549 H 176.63283547765937 162.0693549389187 26.532339622523835 H 0.0 **** 0.06
9550 H 175.56114185092616 160.75591676853048 25.990528568215638 H 0.0 **** 0.06
9551 C 158.16693645240997 154.95705395663936 31.77284247382798 C 0.0 **** -0.24
9552 H 158.87723145687326 154.2867873249248 32.25788580749152 H 0.0 **** 0.06
9553 H 158.7085629635499 155.68057799941352 31.163395142723815 H 0.0 **** 0.06
9554 H 157.5862848734421 155.48214609767854 32.53043426290759 H 0.0 **** 0.06
9555 H 157.49654465035343 154.37719664725347 31.138256229043733 H 0.0 **** 0.06
9556 C 11.280540149268774 41.02325771112018 71.97802487334384 C 0.0 **** -0.24
9557 H 11.96439280041185 40.498193048791165 71.31139753655307 H 0.0 **** 0.06
9558 H 10.297106500273927 41.08973315025372 71.51028702739322 H 0.0 **** 0.06
9559 H 11.660626131506525 42.02638621805346 72.17016856116157 H 0.0 **** 0.06
9560 H 11.199229066387431 40.4781963936469 72.91799296322515 H 0.0 **** 0.06
9561 C 155.88501102842466 62.844444522842764 10.493144867539073 C 0.0 **** -0.24
9562 H 155.83995877298275 63.313302169613735 9.509550340026166 H 0.0 **** 0.06
9563 H 156.20205431821915 61.80681650916682 10.386791538146035 H 0.0 **** 0.06
9564 H 154.8983779519596 62.878305414177646 10.956679126394384 H 0.0 **** 0.06
9565 H 156.59898662596314 63.38142057320158 11.118424768733078 H 0.0 **** 0.06
9566 C 134.58167463954163 125.62107940967742 149.5711444445045 C 0.0 **** -0.24
9567 H 135.67067895429045 125.67507985675336 149.5463059453278 H 0.0 **** 0.06
9568 H 134.18909173635484 125.75553416951281 148.56282705166137 H 0.0 **** 0.06
9569 H 134.1941472207493 126.40659539383942 150.21965234226576 H 0.0 **** 0.06
9570 H 134.2754953174835 124.64759901382153 149.95461349626387 H 0.0 **** 0.06
9571 C 134.91237711195168 109.35980685488767 65.47076211666342 C 0.0 **** -0.24
9572 H 134.3365016723546 110.23965250368536 65.75636228553816 H 0.0 **** 0.06
9573 H 134.36476019213518 108.46011119684687 65.75162115271215 H 0.0 **** 0.06
9574 H 135.8745764866381 109.37435941587017 65.98192151479577 H 0.0 **** 0.06
9575 H 135.0739334251865 109.36558556550136 64.39230740993005 H 0.0 **** 0.06
9576 C 131.5103766878346 49.70907239263926 104.21356938166021 C 0.0 **** -0.24
9577 H 130.70411576952353 49.4746588709214 104.90962040712368 H 0.0 **** 0.06
9578 H 132.0019072233237 50.63042282041893 104.52548199303529 H 0.0 **** 0.06
9579 H 131.10057552672794 49.83610152971417 103.21198316529485 H 0.0 **** 0.06
9580 H 132.2342443136289 48.89402135282867 104.20971826137689 H 0.0 **** 0.06
9581 C 116.3227648795597 181.91179480196183 98.32819324052146 C 0.0 **** -0.24
9582 H 116.40420879615296 180.8777213539018 97.99319121470138 H 0.0 **** 0.06
9583 H 116.95984965999374 182.0613495852619 99.2005754629569 H 0.0 **** 0.06
9584 H 115.28769325949393 182.12703538264003 98.59234959880366 H 0.0 **** 0.06
9585 H 116.63944006343614 182.57891100469257 97.52780076795715 H 0.0 **** 0.06
9586 C 120.92768382137767 68.08234780820784 165.62464530988672 C 0.0 **** -0.24
9587 H 121.87407768155673 68.47633975155325 165.99627872532164 H 0.0 **** 0.06
9588 H 120.73595363822905 68.48070766406278 164.6277514571289 H 0.0 **** 0.06
9589 H 120.12226360427097 68.37840205497318 166.29575818151545 H 0.0 **** 0.06
9590 H 120.9811396663058 66.99447090729726 165.5775953860143 H 0.0 **** 0.06
9591 C 113.39594898132457 12.469224675494445 142.4119761695885 C 0.0 **** -0.24
9592 H 113.18440748261484 11.400392801595103 142.39337595621055 H 0.0 **** 0.06
9593 H 112.91072459498885 12.919012939367065 143.27878364570756 H 0.0 **** 0.06
9594 H 113.01538261413707 12.93104994733062 141.5017608188661 H 0.0 **** 0.06
9595 H 114.47271996713273 12.62537672735155 142.4769079984278 H 0.0 **** 0.06
9596 C 124.31221150058131 10.037693805804622 152.60015073308625 C 0.0 **** -0.24
9597 H 123.57904971882188 10.841053301719796 152.67149975461456 H 0.0 **** 0.06
9598 H 124.00919124234714 9.210474582073573 153.24169763874474 H 0.0 **** 0.06
9599 H 125.28760153157164 10.408087691233504 152.91877444476256 H 0.0 **** 0.06
9600 H 124.37456819509539 9.693563277639043 151.56775101060907 H 0.0 **** 0.06
9601 C 137.57597249394854 31.16281153105085 150.3514968990466 C 0.0 **** -0.24
9602 H 136.67649443249974 30.865025445019157 150.89104675372084 H 0.0 **** 0.06
9603 H 137.30001566546235 31.544840207133177 149.36877757182597 H 0.0 **** 0.06
9604 H 138.23237997451736 30.300234789986135 150.23583379763073 H 0.0 **** 0.06
9605 H 138.09465455968245 31.94070230747694 150.91271365107264 H 0.0 **** 0.06
9606 C 166.27528043527315 182.68061549751073 24.26254868165593 C 0.0 **** -0.24
9607 H 167.15821378445548 182.1641836264996 23.885728843020615 H 0.0 **** 0.06
9608 H 165.56612862227874 181.95067552428932 24.653237446379052 H 0.0 **** 0.06
9609 H 165.809730417634 183.24330000392413 23.45286188336044 H 0.0 **** 0.06
9610 H 166.56781751293596 183.36548997779997 25.058367985353044 H 0.0 **** 0.06
9611 C 11.682676237688781 117.19604158538903 58.13373377244058 C 0.0 **** -0.24
9612 H 12.105064743464709 116.89137579455934 59.09085813739475 H 0.0 **** 0.06
9613 H 11.233509124439138 118.18443110591056 58.23176146025733 H 0.0 **** 0.06
9614 H 10.920471198968926 116.47897094638427 57.82766587359873 H 0.0 **** 0.06
9615 H 12.472366364027323 117.22822704345504 57.38261195683755 H 0.0 **** 0.06
9616 C 34.457743570531164 43.53612400536866 71.90431078797684 C 0.0 **** -0.24
9617 H 33.390830943333356 43.315742888809666 71.90776657546371 H 0.0 **** 0.06
9618 H 34.65329136224 44.37461419952729 71.23616588655541 H 0.0 **** 0.06
9619 H 35.008336958812095 42.661381878641095 71.56042642049731 H 0.0 **** 0.06
9620 H 34.77805056611379 43.793196649420025 72.91414565371828 H 0.0 **** 0.06
9621 C 82.87891115270803 31.392415784202512 60.28353422065693 C 0.0 **** -0.24
9622 H 82.23380662821197 31.963339568242503 59.61561390227321 H 0.0 **** 0.06
9623 H 82.86536573077542 30.342014422425223 59.991024582662305 H 0.0 **** 0.06
9624 H 82.5176491848685 31.488169561664506 61.307863947057626 H 0.0 **** 0.06
9625 H 83.89745499520149 31.774375478242916 60.21950626176388 H 0.0 **** 0.06
9626 C 176.42717376739802 61.2830028866032 96.62218145265895 C 0.0 **** -0.24
9627 H 175.63143358769236 61.140349280274464 97.35370376431116 H 0.0 **** 0.06
9628 H 177.0207764258147 60.37123503655812 96.54983744846528 H 0.0 **** 0.06
9629 H 177.0658746853149 62.10872387383334 96.93708679101069 H 0.0 **** 0.06
9630 H 175.99017812493014 61.51160699164332 95.65050696142741 H 0.0 **** 0.06
9631 C 124.07530563189478 185.15110419909152 173.21271445880606 C 0.0 **** -0.24
9632 H 123.38547255592975 185.98872525672658 173.11499737855746 H 0.0 **** 0.06
9633 H 123.63097521424656 184.386136683709 173.85005154459134 H 0.0 **** 0.06
9634 H 125.00788026620874 185.49832336686313 173.65965831599166 H 0.0 **** 0.06
9635 H 124.27941231334107 184.7306846933267 172.22768741373383 H 0.0 **** 0.06
9636 C 24.636447520221566 26.95789500260844 181.05185907075298 C 0.0 **** -0.24
9637 H 24.334453879076534 27.997716828916566 181.1798152772143 H 0.0 **** 0.06
9638 H 23.879040039062915 26.304355389028387 181.48399704627315 H 0.0 **** 0.06
9639 H 25.589661722564813 26.791920500607944 181.55299726790463 H 0.0 **** 0.06
9640 H 24.7423445626863 26.74013126188777 179.98851850294068 H 0.0 **** 0.06
9641 C 59.03053903710229 177.83081241366696 29.563299821052283 C 0.0 **** -0.24
9642 H 59.78190190939043 178.56057452481986 29.86506373529008 H 0.0 **** 0.06
9643 H 59.038585238671104 176.9930734600279 30.260330708502067 H 0.0 **** 0.06
9644 H 59.25588896493403 177.4713627426759 28.55871446685194 H 0.0 **** 0.06
9645 H 58.04680954042958 178.29976710407556 29.568312624538038 H 0.0 **** 0.06
9646 C 159.78717570359473 120.59239012281087 179.86734124641194 C 0.0 **** -0.24
9647 H 160.68155983749702 120.97089520724585 180.3616865428022 H 0.0 **** 0.06
9648 H 158.9163766196291 120.78702861015206 180.49241736018436 H 0.0 **** 0.06
9649 H 159.8873931387473 119.51870708428878 179.70661920141148 H 0.0 **** 0.06
9650 H 159.6637672275188 121.09286004426484 178.90695665292844 H 0.0 **** 0.06
9651 C 101.62689634746607 132.10569830937175 181.5068884526067 C 0.0 **** -0.24
9652 H 101.23223684154493 131.14978341625294 181.85015793343115 H 0.0 **** 0.06
9653 H 100.89568825665253 132.58858419613932 180.85815559059793 H 0.0 **** 0.06
9654 H 102.55109644167987 131.93879230527477 180.95326408104017 H 0.0 **** 0.06
9655 H 101.82902952912906 132.74518456871613 182.36673895701958 H 0.0 **** 0.06
9656 C 139.15046387219866 63.14071671087635 41.10051758991608 C 0.0 **** -0.24
9657 H 139.7976202308364 62.759154388948104 40.310427583296644 H 0.0 **** 0.06
9658 H 138.57910167139693 63.98912033088442 40.72409244164163 H 0.0 **** 0.06
9659 H 139.76075278883337 63.45911274047654 41.945849345801605 H 0.0 **** 0.06
9660 H 138.46745779048473 62.354886818055206 41.422126699245666 H 0.0 **** 0.06
9661 C 185.16820112060492 173.308952775526 54.775805614835235 C 0.0 **** -0.24
9662 H 184.28055762671357 173.90066089289002 54.548788146321215 H 0.0 **** 0.06
9663 H 185.4825091489607 172.7698976760047 53.88131499981881 H 0.0 **** 0.06
9664 H 184.93664112096894 172.59627706190506 55.56744736462099 H 0.0 **** 0.06
9665 H 185.9700321548546 173.96886758823095 55.10352766073106 H 0.0 **** 0.06
9666 C 97.58734562088539 119.50803230858425 92.40595487669457 C 0.0 **** -0.24
9667 H 96.70528173758275 120.00957239018352 92.8046793766592 H 0.0 **** 0.06
9668 H 97.46050343143243 119.34879352940693 91.33504991457876 H 0.0 **** 0.06
9669 H 97.71610950415582 118.54759561264125 92.90459659958445 H 0.0 **** 0.06
9670 H 98.46642347894728 120.12812236062167 92.57927767086728 H 0.0 **** 0.06
9671 C 133.70577892480713 78.73150178383125 164.2621371521442 C 0.0 **** -0.24
9672 H 133.69723244337843 79.78159694849907 163.97272148692701 H 0.0 **** 0.06
9673 H 134.59344124265942 78.24917395068287 163.85180088117775 H 0.0 **** 0.06
9674 H 132.8123004058952 78.240995045143 163.87665742015807 H 0.0 **** 0.06
9675 H 133.7215609007871 78.65538303863906 165.3506371740225 H 0.0 **** 0.06
9676 C 160.90350000240315 76.75466604419626 83.0627394932039 C 0.0 **** -0.24
9677 H 160.49355592638884 76.76219285674065 84.07233770412248 H 0.0 **** 0.06
9678 H 161.3913437902048 75.79796417205061 82.8754073384157 H 0.0 **** 0.06
9679 H 161.6309974819085 77.56033735433198 82.96055564996381 H 0.0 **** 0.06
9680 H 160.09800231104674 76.89986344237862 82.34230867178483 H 0.0 **** 0.06
9681 C 85.82855763726475 112.63771349305075 79.11167274648005 C 0.0 **** -0.24
9682 H 85.01612969510104 112.89193276531533 79.7931423257574 H 0.0 **** 0.06
9683 H 86.30872374548836 113.55248286235569 78.7628333906456 H 0.0 **** 0.06
9684 H 85.42916386311099 112.0894554205566 78.2585830346328 H 0.0 **** 0.06
9685 H 86.55906046933335 112.01889721679579 79.63221417393709 H 0.0 **** 0.06
9686 C 82.78828270850386 183.48901528850257 79.10105864205077 C 0.0 **** -0.24
9687 H 83.56569244687546 184.22327303772957 78.89108005508163 H 0.0 **** 0.06
9688 H 82.21061884785905 183.81072347990798 79.96815649716709 H 0.0 **** 0.06
9689 H 83.24786575183293 182.52255812257977 79.3075104049755 H 0.0 **** 0.06
9690 H 82.12855589406286 183.4008611182295 78.23756993414705 H 0.0 **** 0.06
9691 C 0.9341705878395032 137.28180335875362 141.85892009666173 C 0.0 **** -0.24
9692 H 0.9317162985403797 138.34423080798268 141.61289513028441 H 0.0 **** 0.06
9693 H 0.5398853661300791 136.71254558254373 141.01679176555558 H 0.0 **** 0.06
9694 H 0.3100080720546998 137.11156109281364 142.73678461657158 H 0.0 **** 0.06
9695 H 1.9539711543188787 136.9603072972173 142.07006802147214 H 0.0 **** 0.06
9696 C 57.98899569115224 94.56461048553156 80.11735638466723 C 0.0 **** -0.24
9697 H 58.88494568031183 94.09332744148263 80.52079195572145 H 0.0 **** 0.06
9698 H 57.272570581112916 93.79531432014993 79.82852971562465 H 0.0 **** 0.06
9699 H 58.2551706378765 95.16066202598721 79.24374671657182 H 0.0 **** 0.06
9700 H 57.545648651885415 95.20919988670117 80.87567837777942 H 0.0 **** 0.06
9701 C 127.58400451056922 59.86899432645285 28.123549117415692 C 0.0 **** -0.24
9702 H 128.20225723589408 60.23541405408048 28.94244379257391 H 0.0 **** 0.06
9703 H 127.52285036649793 58.78206907779531 28.172324351530534 H 0.0 **** 0.06
9704 H 128.02678050670636 60.166544194315804 27.172538665855583 H 0.0 **** 0.06
9705 H 126.58341097229136 60.29371075816999 28.206270908540844 H 0.0 **** 0.06
9706 C 36.36543043935738 183.92079175565095 3.900210023873221 C 0.0 **** -0.24
9707 H 35.30347493585201 183.8606522326773 4.141479885305813 H 0.0 **** 0.06
9708 H 36.841703212575965 182.96564713314297 4.123482012011877 H 0.0 **** 0.06
9709 H 36.828858524192924 184.7069642262287 4.496605555590328 H 0.0 **** 0.06
9710 H 36.48551490964708 184.14896042959376 2.8415967253762844 H 0.0 **** 0.06
9711 C 9.901490360868593 132.790585982148 0.930892416063017 C 0.0 **** -0.24
9712 H 10.517918174058536 133.20508687042496 0.13250081059629792 H 0.0 **** 0.06
9713 H 9.947370297791167 131.70175954129508 0.8981602977821979 H 0.0 **** 0.06
9714 H 8.86941495778774 133.11451645785917 0.7970837080459319 H 0.0 **** 0.06
9715 H 10.269901021624264 133.14229604934087 1.8942661557920246 H 0.0 **** 0.06
9716 C 65.78726760589578 15.579548134633633 25.234967540083858 C 0.0 **** -0.24
9717 H 65.34182220035063 16.371584882760843 24.6320259403509 H 0.0 **** 0.06
9718 H 65.5663076764958 14.61211235098289 24.784190351543373 H 0.0 **** 0.06
9719 H 65.37449766199904 15.614864657804006 26.242806843567422 H 0.0 **** 0.06
9720 H 66.86752104506184 15.722758986179848 25.27941475901011 H 0.0 **** 0.06
9721 C 111.83552441876088 143.06455064103608 161.9116802099798 C 0.0 **** -0.24
9722 H 112.40251716437263 143.84609112044214 162.41758541035654 H 0.0 **** 0.06
9723 H 110.78019435034565 143.33765752012494 161.8900825444486 H 0.0 **** 0.06
9724 H 111.95676295509662 142.12275797086858 162.44757494364154 H 0.0 **** 0.06
9725 H 112.20317079211276 142.95249795032117 160.8917166319604 H 0.0 **** 0.06
9726 C 140.07662569428214 135.2757964592289 177.09222470071876 C 0.0 **** -0.24
9727 H 140.60869399254136 136.16730958153892 176.75716934308127 H 0.0 **** 0.06
9728 H 139.07318793320775 135.5523452083509 177.41576884126158 H 0.0 **** 0.06
9729 H 140.6153183998506 134.82304289612574 177.92385846077693 H 0.0 **** 0.06
9730 H 140.0103654673457 134.56331112353536 176.2701270263248 H 0.0 **** 0.06
9731 C 56.65440073992774 51.083723287895225 141.94787931400236 C 0.0 **** -0.24
9732 H 56.47867642010547 51.5242369040385 142.92867034704324 H 0.0 **** 0.06
9733 H 57.727203398796945 51.0158444140649 141.76626905395608 H 0.0 **** 0.06
9734 H 56.19462666870963 51.70819225801873 141.18095512791035 H 0.0 **** 0.06
9735 H 56.21548376347543 50.08621080028024 141.9141286731102 H 0.0 **** 0.06
9736 C 70.87298971978186 168.70212738726272 145.1920919995003 C 0.0 **** -0.24
9737 H 71.39055183433679 169.0804048995853 146.0732809284832 H 0.0 **** 0.06
9738 H 70.95534911322831 169.42736988560173 144.38241452176487 H 0.0 **** 0.06
9739 H 69.8211916201007 168.54001899986267 145.42948831700505 H 0.0 **** 0.06
9740 H 71.32483672232665 167.75933394637102 144.8828846411123 H 0.0 **** 0.06
9741 C 74.22440899706247 24.40372827345206 69.69736067325442 C 0.0 **** -0.24
9742 H 73.60238523354705 23.56270363763076 70.00384128336795 H 0.0 **** 0.06
9743 H 75.27174586567827 24.17103995129959 69.8909814433181 H 0.0 **** 0.06
9744 H 73.93853085584867 25.29105842833947 70.26129437779653 H 0.0 **** 0.06
9745 H 74.08385058871211 24.58952784860962 68.63269490069621 H 0.0 **** 0.06
9746 C 18.08798511380911 170.62608472576593 13.26549420410447 C 0.0 **** -0.24
9747 H 17.9222347109731 171.21702752790202 14.166568998250398 H 0.0 **** 0.06
9748 H 18.459253472984244 171.27332903319495 12.47067976983746 H 0.0 **** 0.06
9749 H 17.148318090392763 170.1702349088382 12.953131916532499 H 0.0 **** 0.06
9750 H 18.820457682255437 169.846295421728 13.472431208792102 H 0.0 **** 0.06
9751 C 12.409942851636572 53.61603467354827 18.399988447572575 C 0.0 **** -0.24
9752 H 13.434263387283352 53.30280982119497 18.603362512300556 H 0.0 **** 0.06
9753 H 12.350557614088444 54.704352887540736 18.427470025179865 H 0.0 **** 0.06
9754 H 11.74576903773098 53.19597922714172 19.15449616739815 H 0.0 **** 0.06
9755 H 12.11075236754749 53.26080529649266 17.413921256463247 H 0.0 **** 0.06
9756 C 122.32196604528279 30.113789355792647 102.66333046158168 C 0.0 **** -0.24
9757 H 121.73878495263442 29.194556811106565 102.72127624399211 H 0.0 **** 0.06
9758 H 121.66178276539627 30.971648271235892 102.79016687267558 H 0.0 **** 0.06
9759 H 122.81179067644759 30.171740037995164 101.69136754572743 H 0.0 **** 0.06
9760 H 123.07679779197109 30.11576937276635 103.45001241149852 H 0.0 **** 0.06
9761 C 31.228758690753352 178.9349082826827 175.04059225466852 C 0.0 **** -0.24
9762 H 31.324453195174527 177.91979205094214 174.65718656296144 H 0.0 **** 0.06
9763 H 32.20086361537841 179.42713439060495 175.0132639647931 H 0.0 **** 0.06
9764 H 30.86584135862563 178.90259154531222 176.0678405202005 H 0.0 **** 0.06
9765 H 30.522305448938766 179.49126220675268 174.42258938120122 H 0.0 **** 0.06
9766 C 132.40313182127613 36.41952579939013 96.24014684597712 C 0.0 **** -0.24
9767 H 131.6623771175676 37.201530837348585 96.07442435759013 H 0.0 **** 0.06
9768 H 133.4003876431396 36.8178668377745 96.0512801602281 H 0.0 **** 0.06
9769 H 132.2101741805738 35.58602417129275 95.56430384395499 H 0.0 **** 0.06
9770 H 132.33989945041816 36.07200588239557 97.2717819369641 H 0.0 **** 0.06
9771 C 185.30414696092396 86.23441665846741 165.36948774434782 C 0.0 **** -0.24
9772 H 184.46318803695766 86.90639700257367 165.19704390261722 H 0.0 **** 0.06
9773 H 185.33973096605936 85.95997887681204 166.4245460773533 H 0.0 **** 0.06
9774 H 186.23151188185045 86.73599337176285 165.09317548771145 H 0.0 **** 0.06
9775 H 185.1819273696545 85.33671309219943 164.7645794804206 H 0.0 **** 0.06
9776 C 13.053064261164678 1.0727479958819686 100.30818506507227 C 0.0 **** -0.24
9777 H 12.588039089911568 1.7735907790388694 101.00170532719024 H 0.0 **** 0.06
9778 H 12.650098394331238 1.2306596109668817 99.30783323035779 H 0.0 **** 0.06
9779 H 12.843571345953208 0.05206187501005388 100.62835053262741 H 0.0 **** 0.06
9780 H 14.13091514197911 1.235847496382405 100.29555948393737 H 0.0 **** 0.06
9781 C 4.5987626214557125 26.777890771214857 95.72871146788326 C 0.0 **** -0.24
9782 H 5.253996060596535 27.62188304353947 95.94555371896682 H 0.0 **** 0.06
9783 H 4.1923208637802745 26.38493243309057 96.66087412328311 H 0.0 **** 0.06
9784 H 5.167827951476269 25.998240838965557 95.22246844985274 H 0.0 **** 0.06
9785 H 3.782555749066958 27.107972837836883 95.08559207771891 H 0.0 **** 0.06
9786 C 92.55556849786952 91.32040076729396 45.97491876360826 C 0.0 **** -0.24
9787 H 91.99562648073295 91.82545724735036 46.76211458255881 H 0.0 **** 0.06
9788 H 92.76851594589878 90.2961707463968 46.28170960780541 H 0.0 **** 0.06
9789 H 93.4912225713298 91.8495333204587 45.7971477513951 H 0.0 **** 0.06
9790 H 91.9636242863947 91.31061204821657 45.059129693498306 H 0.0 **** 0.06
9791 C 74.22522547038477 110.69209954650309 29.420075907082037 C 0.0 **** -0.24
9792 H 74.1310260507039 109.9702791079679 30.232497061505455 H 0.0 **** 0.06
9793 H 75.24603736708072 111.07143029383236 29.38898588315371 H 0.0 **** 0.06
9794 H 73.53467106422521 111.51805913844375 29.58802443358266 H 0.0 **** 0.06
9795 H 73.98825768482793 110.20668870392537 28.47369547157129 H 0.0 **** 0.06
9796 C 142.38618396176122 125.30023620747419 71.34281283571859 C 0.0 **** -0.24
9797 H 141.49080314321662 125.79136781197612 70.96117254494777 H 0.0 **** 0.06
9798 H 143.0054114107799 124.97218619780246 70.50662148532572 H 0.0 **** 0.06
9799 H 142.0995620848077 124.43582355294096 71.94239355943232 H 0.0 **** 0.06
9800 H 142.94959051644778 125.99982342465744 71.9594635620852 H 0.0 **** 0.06
9801 C 55.455639190635964 172.55466118532738 153.22702599632683 C 0.0 **** -0.24
9802 H 55.47187053958376 172.95407288167678 154.24109956577365 H 0.0 **** 0.06
9803 H 56.45168678217824 172.62818498783145 152.7911076608406 H 0.0 **** 0.06
9804 H 54.75031990031134 173.12576562194175 152.62295415028427 H 0.0 **** 0.06
9805 H 55.146018338498905 171.50842329485047 153.2543873726998 H 0.0 **** 0.06
9806 C 184.57599089783565 160.9781723075916 162.84193429052044 C 0.0 **** -0.24
9807 H 184.13912733099008 160.20848470907634 163.47804244401433 H 0.0 **** 0.06
9808 H 183.79001985564003 161.45212018563328 162.25355150308474 H 0.0 **** 0.06
9809 H 185.30788098496805 160.52593926398436 162.17354031325755 H 0.0 **** 0.06
9810 H 185.06605745969173 161.72778170003144 163.46384819580098 H 0.0 **** 0.06
9811 C 83.9617777223113 4.7478144457036535 108.14325826941767 C 0.0 **** -0.24
9812 H 84.28445255366714 5.704517222608914 108.55340470809976 H 0.0 **** 0.06
9813 H 83.57787057956112 4.896356748209001 107.1331984236191 H 0.0 **** 0.06
9814 H 83.17693800221178 4.328861449732514 108.77249141183573 H 0.0 **** 0.06
9815 H 84.80813267550224 4.061065874787381 108.11263024365631 H 0.0 **** 0.06
9816 C 169.26245014725853 49.587046879723175 160.16944187522392 C 0.0 **** -0.24
9817 H 169.5352160810543 48.7396447938676 160.79754360768163 H 0.0 **** 0.06
9818 H 169.96668700248924 50.40197172880039 160.33325358197254 H 0.0 **** 0.06
9819 H 168.25559051549303 49.91900006952682 160.42384340664785 H 0.0 **** 0.06
9820 H 169.2914244375724 49.28617801566767 159.12161659877916 H 0.0 **** 0.06
9821 C 18.88353099949812 26.673443553835966 11.305157468980724 C 0.0 **** -0.24
9822 H 18.91614325058402 25.85722691355687 12.02640443418801 H 0.0 **** 0.06
9823 H 19.096208756182698 26.286724205425628 10.308756110001866 H 0.0 **** 0.06
9824 H 19.6297751404335 27.422329665418204 11.571472414819823 H 0.0 **** 0.06
9825 H 17.892339479712398 27.12795878104157 11.315629745396109 H 0.0 **** 0.06
9826 C 181.2491332130101 116.61730634798148 168.46924644570547 C 0.0 **** -0.24
9827 H 181.17597421537036 117.39448097392788 169.2306305463452 H 0.0 **** 0.06
9828 H 182.0776964816605 115.95074242104651 168.7093980939299 H 0.0 **** 0.06
9829 H 181.42331573334252 117.07726347013967 167.49661020633164 H 0.0 **** 0.06
9830 H 180.32078911090292 116.04792157014721 168.4405840144184 H 0.0 **** 0.06
9831 C 105.52855407813355 142.29965952397902 141.43629829654589 C 0.0 **** -0.24
9832 H 104.5375085770141 142.09828327729412 141.84248886219473 H 0.0 **** 0.06
9833 H 106.13952210087722 142.79052819604146 142.1929470603801 H 0.0 **** 0.06
9834 H 105.43812849820155 142.94855824190094 140.56447144337875 H 0.0 **** 0.06
9835 H 105.99763102032627 141.36070217728144 141.1423454327719 H 0.0 **** 0.06
9836 C 140.19580874248584 43.05888658718149 127.99549331442842 C 0.0 **** -0.24
9837 H 140.8275636407409 43.6004680441725 128.6987255726329 H 0.0 **** 0.06
9838 H 139.18035383823184 43.45522776381283 128.04060900953397 H 0.0 **** 0.06
9839 H 140.18385024881803 42.001094230616005 128.25639111846488 H 0.0 **** 0.06
9840 H 140.5880481112519 43.180243216224014 126.9859329141945 H 0.0 **** 0.06
9841 C 163.7275572574746 68.04349895640303 37.50402223107358 C 0.0 **** -0.24
9842 H 163.3177868506047 67.07688156121468 37.79577961389822 H 0.0 **** 0.06
9843 H 164.69381984924118 67.89719837554776 37.021125647082954 H 0.0 **** 0.06
9844 H 163.85325564682557 68.66656975326448 38.38866058835316 H 0.0 **** 0.06
9845 H 163.04429003808198 68.53208957693678 36.809399689694146 H 0.0 **** 0.06
9846 C 164.29798791412344 72.99780965465169 92.81699072718554 C 0.0 **** -0.24
9847 H 163.96312761322832 72.22886106981434 92.12128101814089 H 0.0 **** 0.06
9848 H 165.07666933099532 73.59909503847092 92.34738503166686 H 0.0 **** 0.06
9849 H 164.69478203800588 72.52518220058397 93.7157554842003 H 0.0 **** 0.06
9850 H 163.45561833824502 73.63668203589668 93.08449581317346 H 0.0 **** 0.06
9851 C 10.772502615513964 5.553957049477425 27.9129594960761 C 0.0 **** -0.24
9852 H 10.982633494687782 5.68038777547936 26.850487063378182 H 0.0 **** 0.06
9853 H 10.256406587828366 4.606624287734505 28.069582921772792 H 0.0 **** 0.06
9854 H 10.140587921625766 6.372656588854383 28.25795552443435 H 0.0 **** 0.06
9855 H 11.708012610148543 5.55559860015039 28.47115362481793 H 0.0 **** 0.06
9856 C 156.9866706366584 177.70737477210912 89.713488312206 C 0.0 **** -0.24
9857 H 156.26649934154966 178.48571499801506 89.9685259492682 H 0.0 **** 0.06
9858 H 156.64185886882183 176.7509973223269 90.1054607080744 H 0.0 **** 0.06
9859 H 157.95580835090448 177.95180662945995 90.1494052117552 H 0.0 **** 0.06
9860 H 157.0822999388754 177.64308078463307 88.62932010675236 H 0.0 **** 0.06
9861 C 176.517363173773 127.71359599201298 71.07289769164956 C 0.0 **** -0.24
9862 H 175.7914846358159 128.38507717282926 71.53201069164436 H 0.0 **** 0.06
9863 H 176.12248130100966 127.34462015288813 70.12641235358828 H 0.0 **** 0.06
9864 H 176.70612825821763 126.87293147351551 71.74094056940028 H 0.0 **** 0.06
9865 H 177.44809217449466 128.2525387789717 70.89483149394636 H 0.0 **** 0.06
9866 C 88.38439398273319 73.98244498880456 168.58906893641208 C 0.0 **** -0.24
9867 H 89.2313718505374 73.63995566969129 167.99497053620053 H 0.0 **** 0.06
9868 H 87.7430790198555 73.13311517426439 168.82990375667526 H 0.0 **** 0.06
9869 H 87.81520436090106 74.71760293882551 168.0212438793494 H 0.0 **** 0.06
9870 H 88.74781985259621 74.43595081257433 169.5115836977479 H 0.0 **** 0.06
9871 C 129.57580613088913 45.92978363667342 22.69656528670697 C 0.0 **** -0.24
9872 H 128.58359533533906 45.55501787031898 22.4424162046451 H 0.0 **** 0.06
9873 H 130.11533485528236 46.17856553754618 21.783103920742576 H 0.0 **** 0.06
9874 H 130.1224642906692 45.16241867269764 23.245029726211328 H 0.0 **** 0.06
9875 H 129.4788148759281 46.82042964607183 23.31648844118564 H 0.0 **** 0.06
9876 C 111.73295002037747 143.01395793850503 51.54295609339037 C 0.0 **** -0.24
9877 H 111.6307982645597 142.78313504840844 52.60364935361059 H 0.0 **** 0.06
9878 H 111.42242508899017 144.04315169019574 51.3635658891684 H 0.0 **** 0.06
9879 H 111.10566739868733 142.33842505493664 50.96147763713128 H 0.0 **** 0.06
9880 H 112.77397744828568 142.89020639257538 51.24328822555333 H 0.0 **** 0.06
9881 C 143.47729444951466 113.69261954530641 142.576448109774 C 0.0 **** -0.24
9882 H 143.15590765519931 112.65209128779544 142.63463632531892 H 0.0 **** 0.06
9883 H 144.54399388223152 113.7306264802334 142.35302880957 H 0.0 **** 0.06
9884 H 143.28695650721306 114.18456135168411 143.5302405853445 H 0.0 **** 0.06
9885 H 142.92169726824562 114.20026654601217 141.788001119427 H 0.0 **** 0.06
9886 C 43.920134753128536 73.93527188707216 62.52011790820485 C 0.0 **** -0.24
9887 H 43.27249573925769 73.63347843996746 63.342298391149114 H 0.0 **** 0.06
9888 H 44.22274301601476 73.05355658199623 61.954081906619805 H 0.0 **** 0.06
9889 H 44.80490889694573 74.43262261902112 62.91832933851684 H 0.0 **** 0.06
9890 H 43.38161443683194 74.62077770155175 61.865481352855255 H 0.0 **** 0.06
9891 C 149.29683754614786 110.24521876980452 127.26221170093713 C 0.0 **** -0.24
9892 H 148.582386908657 110.98601712316253 127.62327608056016 H 0.0 **** 0.06
9893 H 150.30585694763354 110.65257690086776 127.32622392708448 H 0.0 **** 0.06
9894 H 149.069589946549 109.99667397041628 126.2262873136532 H 0.0 **** 0.06
9895 H 149.228354386899 109.34657806538064 127.87544844924422 H 0.0 **** 0.06
9896 C 18.253969572018143 158.41255563226179 163.9103303971867 C 0.0 **** -0.24
9897 H 19.106491256034907 158.96457069768917 164.30777667410445 H 0.0 **** 0.06
9898 H 18.11597370528377 158.66712557702965 162.8588430310599 H 0.0 **** 0.06
9899 H 17.35750324165177 158.67745591311865 164.46914366955372 H 0.0 **** 0.06
9900 H 18.439175744043112 157.34260881054817 164.00457387171843 H 0.0 **** 0.06
9901 C 32.69970006853573 56.501724144384355 179.9319224153183 C 0.0 **** -0.24
9902 H 33.108727471923075 56.70691471561443 180.92127209004303 H 0.0 **** 0.06
9903 H 32.36412837528631 57.43468909639951 179.4783847479713 H 0.0 **** 0.06
9904 H 31.85653274960616 55.817419413464606 180.02149500674045 H 0.0 **** 0.06
9905 H 33.470142282215974 56.049957669988686 179.30688704257688 H 0.0 **** 0.06
9906 C 122.46158663432858 130.84788937020727 179.74047258345115 C 0.0 **** -0.24
9907 H 123.42380566549242 130.3490662003466 179.62032113812157 H 0.0 **** 0.06
9908 H 121.87871510214607 130.73795174799534 178.82523715280726 H 0.0 **** 0.06
9909 H 122.62521634590082 131.9067745882346 179.94240027519757 H 0.0 **** 0.06
9910 H 121.92096647527485 130.39821080932745 180.57213017532735 H 0.0 **** 0.06
9911 C 131.57608038014052 70.4140265369203 131.77599847410187 C 0.0 **** -0.24
9912 H 130.6272697593801 70.9315908145657 131.91421557079934 H 0.0 **** 0.06
9913 H 131.68419444284382 70.12657048575691 130.72976009214108 H 0.0 **** 0.06
9914 H 131.59735407627664 69.52227325298882 132.40265458426308 H 0.0 **** 0.06
9915 H 132.3945964469683 71.07608316083643 132.0574550845211 H 0.0 **** 0.06
9916 C 136.75216151781353 90.5090317272669 85.25426759292498 C 0.0 **** -0.24
9917 H 136.96472052663864 91.23949858424955 86.03491617176911 H 0.0 **** 0.06
9918 H 135.7079920780381 90.59605565955668 84.9509848494219 H 0.0 **** 0.06
9919 H 136.93712876748862 89.50538761823786 85.63643767154338 H 0.0 **** 0.06
9920 H 137.39682093983282 90.69559318119714 84.39610945761262 H 0.0 **** 0.06
9921 C 173.06279425315128 164.7636912185267 132.9176201717438 C 0.0 **** -0.24
9922 H 173.5083345618229 163.7697614406424 132.8724449391301 H 0.0 **** 0.06
9923 H 173.23794426714184 165.19536514930513 133.90416946479235 H 0.0 **** 0.06
9924 H 171.9903640776697 164.6886984401958 132.7390145909813 H 0.0 **** 0.06
9925 H 173.51491782691903 165.3995011696834 132.15679671722296 H 0.0 **** 0.06
9926 C 64.35486563367866 11.09411246437164 94.25296979861683 C 0.0 **** -0.24
9927 H 65.21808165580934 10.932406095869581 94.89883938379374 H 0.0 **** 0.06
9928 H 64.39575062137672 12.100960563427556 93.83750417481654 H 0.0 **** 0.06
9929 H 63.439947031536136 10.977525928416469 94.83508398800443 H 0.0 **** 0.06
9930 H 64.36497443883587 10.364675963333589 93.44262444973394 H 0.0 **** 0.06
9931 C 26.814439748022536 184.98786390063896 173.07753089504703 C 0.0 **** -0.24
9932 H 27.49289643687223 185.01857564719091 172.22528171776153 H 0.0 **** 0.06
9933 H 27.269098158236744 185.50529759923404 173.92285892828005 H 0.0 **** 0.06
9934 H 26.618825005402798 183.94998114995312 173.34870916445038 H 0.0 **** 0.06
9935 H 25.876939391578233 185.47760120617778 172.81327376969608 H 0.0 **** 0.06
9936 C 50.004697640824816 98.66236561473967 16.628077348816333 C 0.0 **** -0.24
9937 H 50.21015474805506 99.64652154795415 17.050716522926336 H 0.0 **** 0.06
9938 H 49.58921006092595 98.77747578358263 15.626416173333809 H 0.0 **** 0.06
9939 H 49.28874247883891 98.13795255065172 17.260409928422717 H 0.0 **** 0.06
9940 H 50.930596966408444 98.08973107575407 16.574500431367312 H 0.0 **** 0.06
9941 C 57.60830659685307 24.965081293440733 1.190123605735515 C 0.0 **** -0.24
9942 H 57.044318457413624 25.636482504674404 1.837255851869699 H 0.0 **** 0.06
9943 H 57.336648940630084 23.932925947722765 1.4125462574712415 H 0.0 **** 0.06
9944 H 58.674893133463385 25.105065727995907 1.3618205659255764 H 0.0 **** 0.06
9945 H 57.37530831913671 25.184579578083856 0.14848419908984312 H 0.0 **** 0.06
9946 C 25.3338596293504 129.83217348710173 175.03707056705986 C 0.0 **** -0.24
9947 H 24.571649159017824 130.01085993472105 174.27865068639693 H 0.0 **** 0.06
9948 H 25.728261356342728 128.82233855973004 174.92557145602916 H 0.0 **** 0.06
9949 H 24.893863703767096 129.94398467682515 176.02816199217116 H 0.0 **** 0.06
9950 H 26.142297008394166 130.55413185236233 174.91504382675754 H 0.0 **** 0.06
9951 C 44.671236286529506 44.958963292271505 72.1611298811458 C 0.0 **** -0.24
9952 H 45.50911622883612 44.50915915294814 72.69404245200869 H 0.0 **** 0.06
9953 H 43.748824994421966 44.76751643014444 72.70889247247983 H 0.0 **** 0.06
9954 H 44.59997410454184 44.52271899303659 71.16494567738222 H 0.0 **** 0.06
9955 H 44.82953957451463 46.03387012098716 72.07667439087517 H 0.0 **** 0.06
9956 C 44.04461260273894 103.24810440690055 139.70910766401005 C 0.0 **** -0.24
9957 H 45.09778485776394 103.53027749338366 139.6801084984441 H 0.0 **** 0.06
9958 H 43.50820012602014 103.76760799811518 138.914221464308 H 0.0 **** 0.06
9959 H 43.62108227904852 103.52351469659408 140.67464512334294 H 0.0 **** 0.06
9960 H 43.95427471161361 102.1717314245692 139.5656865638702 H 0.0 **** 0.06
9961 C 92.31063681171912 92.96927264840588 63.71458175440138 C 0.0 **** -0.24
9962 H 91.54540333476598 92.28237881612534 63.35520324364323 H 0.0 **** 0.06
9963 H 92.59204283887283 92.69908975013584 64.73273509768428 H 0.0 **** 0.06
9964 H 91.9188915255549 93.98708013825888 63.70404883831144 H 0.0 **** 0.06
9965 H 93.1858579705036 92.90989099893153 63.06736763673264 H 0.0 **** 0.06
9966 C 115.58452880923544 43.663259090405006 152.1221651148031 C 0.0 **** -0.24
9967 H 115.50727713906348 43.62811685337516 153.20879456521405 H 0.0 **** 0.06
9968 H 114.61185834126461 43.91471025903218 151.69817825423524 H 0.0 **** 0.06
9969 H 115.90354154849497 42.690643781286695 151.74948205937326 H 0.0 **** 0.06
9970 H 116.31347708834836 44.4205129568947 151.83426870819363 H 0.0 **** 0.06
9971 C 175.31904899733078 99.19856034777528 42.39729091543717 C 0.0 **** -0.24
9972 H 175.42388338711882 100.08567251623406 41.77398916346414 H 0.0 **** 0.06
9973 H 176.0357605223875 99.24495350157532 43.21781919214618 H 0.0 **** 0.06
9974 H 175.5084708973773 98.3080548853229 41.79802659496988 H 0.0 **** 0.06
9975 H 174.30693248695601 99.15574425104144 42.80148437304118 H 0.0 **** 0.06
9976 C 128.3814886332397 151.13474021508938 96.16545251115485 C 0.0 **** -0.24
9977 H 127.99157227173116 150.32596598486128 96.78491670129665 H 0.0 **** 0.06
9978 H 128.5022050969544 152.0315962142172 96.77457340321479 H 0.0 **** 0.06
9979 H 127.68432157404372 151.33869942200636 95.35261667122677 H 0.0 **** 0.06
9980 H 129.34634474705666 150.84241201243026 95.75227913302427 H 0.0 **** 0.06
9981 C 169.99935480089485 131.28986873523831 184.63175430129357 C 0.0 **** -0.24
9982 H 169.11009006125605 131.08113862175747 184.03656161111212 H 0.0 **** 0.06
9983 H 169.70519965464877 131.75010853827098 185.57563801531253 H 0.0 **** 0.06
9984 H 170.6513356170951 131.97015809431372 184.08253776722975 H 0.0 **** 0.06
9985 H 170.53081001340922 130.3595563294552 184.83033307559697 H 0.0 **** 0.06
9986 C 109.23843803344276 56.31279829250451 26.020660333824324 C 0.0 **** -0.24
9987 H 110.09651639181645 55.69450119823594 26.28497947055004 H 0.0 **** 0.06
9988 H 109.35425236365096 56.677538383162954 25.000292234566288 H 0.0 **** 0.06
9989 H 109.17688746777993 57.15947339355125 26.704868037152636 H 0.0 **** 0.06
9990 H 108.327184741821 55.72033779342462 26.09459495374655 H 0.0 **** 0.06
9991 C 136.23811388116212 18.928743102603306 56.08375783534595 C 0.0 **** -0.24
9992 H 135.36379264356628 19.254845430526274 56.64766033122004 H 0.0 **** 0.06
9993 H 136.10837221179418 17.888640951387607 55.782530331362466 H 0.0 **** 0.06
9994 H 137.12690139680484 19.019256498812773 56.7085509613168 H 0.0 **** 0.06
9995 H 136.35119741681206 19.552643442665712 55.198028867415644 H 0.0 **** 0.06
9996 C 11.945038111154588 33.83319117960883 94.9974703563906 C 0.0 **** -0.24
9997 H 11.545284165109507 33.291649011008445 95.85493127714408 H 0.0 **** 0.06
9998 H 11.227012163772912 34.58767109733691 94.67614629165804 H 0.0 **** 0.06
9999 H 12.129449147291893 33.134955407098545 94.1809271894724 H 0.0 **** 0.06
10000 H 12.88057195642159 34.31793748664484 95.2777841486161 H 0.0 **** 0.06
10001 C 23.262784254018243 3.3662207745442743 156.8839129517786 C 0.0 **** -0.24
10002 H 23.617631576019505 4.330090755494851 157.2500733321861 H 0.0 **** 0.06
10003 H 24.071773470518394 2.638716887043472 156.93530226567339 H 0.0 **** 0.06
10004 H 22.93121292813109 3.470024144599506 155.8501021792108 H 0.0 **** 0.06
10005 H 22.42941339314541 3.0287821500442362 157.500739965281 H 0.0 **** 0.06
10006 C 93.16146150600355 77.7150291667778 0.24482341221629156 C 0.0 **** -0.24
10007 H 92.1628399666181 77.9183543693154 0.6322950390388868 H 0.0 **** 0.06
10008 H 93.09155483059561 77.42538781429181 -0.8033789977161874 H 0.0 **** 0.06
10009 H 93.6152102335285 76.90627398914472 0.817016998564057 H 0.0 **** 0.06
10010 H 93.77452973051692 78.6120544498953 0.3344803568371475 H 0.0 **** 0.06
10011 C 15.83861835849379 50.527326331549176 48.23021799018365 C 0.0 **** -0.24
10012 H 14.773472395813315 50.75977190331815 48.246996429267185 H 0.0 **** 0.06
10013 H 16.407296387304932 51.44167896496941 48.06173381402735 H 0.0 **** 0.06
10014 H 16.042439305158332 49.81832788897398 47.4276305495075 H 0.0 **** 0.06
10015 H 16.129148905807888 50.08941801566982 49.18522462567677 H 0.0 **** 0.06
10016 C 175.0629670566181 178.59829589853922 156.23864020340025 C 0.0 **** -0.24
10017 H 175.0044989264343 178.1058365457059 157.20991959515266 H 0.0 **** 0.06
10018 H 175.25424080245423 177.8543885872693 155.46554084442568 H 0.0 **** 0.06
10019 H 175.87136233489176 179.32869158791024 156.2505376830569 H 0.0 **** 0.06
10020 H 174.11935830919214 179.10357884478 156.03183824870027 H 0.0 **** 0.06
10021 C 113.14642325577643 101.34887854926957 99.3613394343608 C 0.0 **** -0.24
10022 H 113.9512804437187 101.51853994445459 100.07650953992776 H 0.0 **** 0.06
10023 H 112.39524575459217 100.69742892321558 99.80966314315619 H 0.0 **** 0.06
10024 H 113.54900617675224 100.87691469558992 98.46495755075851 H 0.0 **** 0.06
10025 H 112.68857053066813 102.3019676474962 99.09647075427601 H 0.0 **** 0.06
10026 C 15.65419536960053 69.08179923146287 147.6208492883166 C 0.0 **** -0.24
10027 H 16.559586634052124 69.43655832917854 148.11434602526725 H 0.0 **** 0.06
10028 H 15.894129954405969 68.76842766778378 146.60523764997095 H 0.0 **** 0.06
10029 H 14.919358826084874 69.88530789265951 147.5894261797057 H 0.0 **** 0.06
10030 H 15.246588957078302 68.23711784909887 148.17518917396882 H 0.0 **** 0.06
10031 C 142.20266815841728 154.04287651156886 25.912053479820543 C 0.0 **** -0.24
10032 H 142.6855930042468 155.01842926185498 25.856783372565175 H 0.0 **** 0.06
10033 H 142.959656290319 153.27132003434704 26.055315311557194 H 0.0 **** 0.06
10034 H 141.6596853968831 153.85275732574655 24.98675474123162 H 0.0 **** 0.06
10035 H 141.50638755149907 154.02897640561653 26.751500026937805 H 0.0 **** 0.06
10036 C 145.87328618365004 176.07741478721428 110.50256985221831 C 0.0 **** -0.24
10037 H 145.29410200847428 176.22122341876903 111.4142601025065 H 0.0 **** 0.06
10038 H 146.61052058229785 176.8753747402029 110.41200094541053 H 0.0 **** 0.06
10039 H 145.20641152008062 176.09850791664385 109.64110795174442 H 0.0 **** 0.06
10040 H 146.3824887623971 175.11437027933079 110.5451067063509 H 0.0 **** 0.06
10041 C 106.71078015092115 108.94229065910935 129.13140823888438 C 0.0 **** -0.24
10042 H 107.28289519460265 108.67520539767713 128.24222365021194 H 0.0 **** 0.06
10043 H 107.38313575292801 109.34823088374083 129.88729503230923 H 0.0 **** 0.06
10044 H 106.21561561300126 108.05324725042459 129.52391849269884 H 0.0 **** 0.06
10045 H 105.96166877250897 109.68970192620594 128.87039310659839 H 0.0 **** 0.06
10046 C 67.95993201623884 176.53151872572894 102.33848021065045 C 0.0 **** -0.24
10047 H 68.80499471857165 176.50816074936796 101.65118568041193 H 0.0 **** 0.06
10048 H 68.07451496697206 175.74151369752894 103.08114647691913 H 0.0 **** 0.06
10049 H 67.035428858611 176.37704472593632 101.7832405980209 H 0.0 **** 0.06
10050 H 67.92582322826007 177.49874660172372 102.83994824673887 H 0.0 **** 0.06
10051 C 180.1599033312666 64.94882211797936 156.06144787144652 C 0.0 **** -0.24
10052 H 179.53369287188806 64.28416893311139 155.46540509275064 H 0.0 **** 0.06
10053 H 179.53537881375877 65.51170312241719 156.7549667669939 H 0.0 **** 0.06
10054 H 180.68494123603858 65.64003277323657 155.40221696359674 H 0.0 **** 0.06
10055 H 180.88655326397867 64.35897274480358 156.621221919452 H 0.0 **** 0.06
10056 C 101.5074667856772 185.4743334432034 159.63388761424028 C 0.0 **** -0.24
10057 H 101.93414088623217 185.2159889012226 160.60333832765974 H 0.0 **** 0.06
10058 H 100.42009098472107 185.4096713097211 159.6864144594673 H 0.0 **** 0.06
10059 H 101.87668685370971 184.78025090323692 158.87871787268642 H 0.0 **** 0.06
10060 H 101.79879118778246 186.4904352055714 159.36706431131455 H 0.0 **** 0.06
10061 C 94.33389243070287 58.92132190829703 22.642450069243353 C 0.0 **** -0.24
10062 H 95.40129315782188 58.96495503217312 22.85712466595038 H 0.0 **** 0.06
10063 H 93.77220340235611 59.22098938962475 23.528675358468632 H 0.0 **** 0.06
10064 H 94.06041212171881 57.90404154148702 22.36619206227482 H 0.0 **** 0.06
10065 H 94.10134386152642 59.59667519742145 21.81954397337867 H 0.0 **** 0.06
10066 C 72.21353393259328 25.148992174839236 106.19186383316064 C 0.0 **** -0.24
10067 H 72.25614122305821 25.14727346220826 107.28166797262107 H 0.0 **** 0.06
10068 H 73.19276849250032 24.889662843273697 105.79026413047943 H 0.0 **** 0.06
10069 H 71.92813894774595 26.14131328064667 105.84240440339896 H 0.0 **** 0.06
10070 H 71.47695349920463 24.419524119946686 105.85589810343002 H 0.0 **** 0.06
10071 C 22.362134327213823 129.98502654805282 156.73073656327603 C 0.0 **** -0.24
10072 H 22.241423866991283 128.92459210112048 156.5080660759653 H 0.0 **** 0.06
10073 H 22.337013714843636 130.55613772550782 155.80237437387063 H 0.0 **** 0.06
10074 H 23.31751588554397 130.145041374203 157.23042115898258 H 0.0 **** 0.06
10075 H 21.55179371184701 130.313440295825 157.38132618237915 H 0.0 **** 0.06
10076 C 106.49152034797181 171.43090225350738 41.38731799762991 C 0.0 **** -0.24
10077 H 107.2140524537785 172.24562285636 41.36976778799777 H 0.0 **** 0.06
10078 H 106.70500270990705 170.7743211860768 42.23161058962066 H 0.0 **** 0.06
10079 H 106.56210552980077 170.8627627298757 40.45905908449157 H 0.0 **** 0.06
10080 H 105.48632930355392 171.83821605336152 41.487939838076215 H 0.0 **** 0.06
10081 C 167.23656327790522 173.05929878547494 178.62598481522824 C 0.0 **** -0.24
10082 H 167.5999518517014 173.91400018974784 178.05441885609054 H 0.0 **** 0.06
10083 H 166.29834465590687 173.32074269589071 179.11415305767656 H 0.0 **** 0.06
10084 H 167.97593371281033 172.7869301939372 179.37924644133687 H 0.0 **** 0.06
10085 H 167.07553680769874 172.21602553616648 177.95402344899165 H 0.0 **** 0.06
10086 C 126.39808477435226 70.88710470671191 142.88153139697232 C 0.0 **** -0.24
10087 H 126.66056196594367 70.60685269611875 141.86143047246765 H 0.0 **** 0.06
10088 H 126.80926692668244 71.87221642029955 143.1055192353391 H 0.0 **** 0.06
10089 H 126.81016091191542 70.1544762404961 143.576161639834 H 0.0 **** 0.06
10090 H 125.31322057810486 70.91381241691722 142.98335347167796 H 0.0 **** 0.06
10091 C 51.383044454957314 14.222772134550183 106.90105186613981 C 0.0 **** -0.24
10092 H 51.84424599845937 14.166523684491779 105.9151793570018 H 0.0 **** 0.06
10093 H 51.751941147639 15.104437287303398 107.42487640218455 H 0.0 **** 0.06
10094 H 51.63656044690799 13.32799464178396 107.4711170266391 H 0.0 **** 0.06
10095 H 50.30108299214237 14.28985842076196 106.79334321837503 H 0.0 **** 0.06
10096 C 129.58539205577824 143.7047333119234 154.92804771449136 C 0.0 **** -0.24
10097 H 128.92818743325267 143.96501676043567 155.75915843565522 H 0.0 **** 0.06
10098 H 130.24323450313875 144.54532093553047 154.70861638196945 H 0.0 **** 0.06
10099 H 128.98423987628217 143.47336719794862 154.04928032889194 H 0.0 **** 0.06
10100 H 130.18438906760963 142.8354010636251 155.19807987752986 H 0.0 **** 0.06
10101 C 79.02649551063418 119.23640250391124 168.64764116124888 C 0.0 **** -0.24
10102 H 79.9414137806003 119.82627675360858 168.58352160369375 H 0.0 **** 0.06
10103 H 79.13428653154105 118.48182274854047 169.42717875900132 H 0.0 **** 0.06
10104 H 78.8425662566904 118.74749636700462 167.69026390285464 H 0.0 **** 0.06
10105 H 78.18914681198446 119.8912921869336 168.88845233461544 H 0.0 **** 0.06
10106 C 88.21568385404463 143.64914412667594 135.88520102713323 C 0.0 **** -0.24
10107 H 87.62097738087168 144.5251389438677 136.14307045210444 H 0.0 **** 0.06
10108 H 88.29341498472876 142.9943624412914 136.75441920105771 H 0.0 **** 0.06
10109 H 89.21287873203129 143.9645689385547 135.57770804347075 H 0.0 **** 0.06
10110 H 87.73652643538371 143.11212573396543 135.06692065712446 H 0.0 **** 0.06
10111 C 30.994694561695056 177.7250565042042 117.90855285644712 C 0.0 **** -0.24
10112 H 30.397981730453694 177.9244737967469 118.7989094789386 H 0.0 **** 0.06
10113 H 32.0192581679639 177.49681853196392 118.20306978187038 H 0.0 **** 0.06
10114 H 30.98922432578435 178.6045633853705 117.26383500076462 H 0.0 **** 0.06
10115 H 30.5725752275047 176.87663864256825 117.37034309042731 H 0.0 **** 0.06
10116 C 98.95544586848928 31.445023061677944 62.64207418417115 C 0.0 **** -0.24
10117 H 99.50880353974998 31.141136756890944 61.754926111754514 H 0.0 **** 0.06
10118 H 97.96118591296346 31.784831613942174 62.352340429555056 H 0.0 **** 0.06
10119 H 99.48521028607115 32.25609712746552 63.14139860559695 H 0.0 **** 0.06
10120 H 98.86574641318981 30.59691623675485 63.322289761741956 H 0.0 **** 0.06
10121 C 154.61078638745224 137.2689272976575 24.709911527542346 C 0.0 **** -0.24
10122 H 153.85935808812678 137.9917709117699 24.391628646499555 H 0.0 **** 0.06
10123 H 154.15581500538502 136.54986235793575 25.392796637657526 H 0.0 **** 0.06
10124 H 155.42299095512297 137.78994137576683 25.217626461109845 H 0.0 **** 0.06
10125 H 155.0030646543988 136.74470673854626 23.839008027328845 H 0.0 **** 0.06
10126 C 96.32643324020837 133.1699097797768 28.9525955662737 C 0.0 **** -0.24
10127 H 97.30525784139074 133.47706050155222 29.318074903388947 H 0.0 **** 0.06
10128 H 96.07393715065344 133.74760255077268 28.06306750816033 H 0.0 **** 0.06
10129 H 95.57788577149368 133.34645813864245 29.72459797036325 H 0.0 **** 0.06
10130 H 96.34773118171942 132.1095587259154 28.702624801481278 H 0.0 **** 0.06
10131 C 156.25729620285 25.731228657978193 71.80614493478065 C 0.0 **** -0.24
10132 H 156.8074702836684 25.753203879489703 70.86468650836879 H 0.0 **** 0.06
10133 H 156.81434732722414 26.282182031277415 72.56365386407498 H 0.0 **** 0.06
10134 H 156.1287790002781 24.697937269801173 72.12687936337268 H 0.0 **** 0.06
10135 H 155.28018158309897 26.191853194771554 71.66556618707902 H 0.0 **** 0.06
10136 C 60.2518730019998 139.29618603068803 135.63155380224867 C 0.0 **** -0.24
10137 H 60.828839059379106 138.51581383771435 136.1295546216404 H 0.0 **** 0.06
10138 H 59.25451255543135 138.91994190315802 135.40452989920544 H 0.0 **** 0.06
10139 H 60.752332188526 139.5825529078126 134.7066457132804 H 0.0 **** 0.06
10140 H 60.17415220445048 140.16313745907996 136.2862781849878 H 0.0 **** 0.06
10141 C 13.920409842152175 148.5569721301335 178.77401868180857 C 0.0 **** -0.24
10142 H 12.893131208122206 148.90377548123433 178.66214193416118 H 0.0 **** 0.06
10143 H 13.961110769989347 147.78290357407423 179.53979909900664 H 0.0 **** 0.06
10144 H 14.555012709147 149.393519869261 179.06761272145127 H 0.0 **** 0.06
10145 H 14.272016964299823 148.14985755397043 177.8261149358798 H 0.0 **** 0.06
10146 C 21.144195853883303 77.33329329717041 12.347089219108 C 0.0 **** -0.24
10147 H 21.118674129875586 77.74822245124783 13.35542489630825 H 0.0 **** 0.06
10148 H 22.129763782285096 76.91102995592455 12.15356436886848 H 0.0 **** 0.06
10149 H 20.936975330952123 78.12309336382344 11.624858038147018 H 0.0 **** 0.06
10150 H 20.389284579207754 76.55162751024884 12.257339851210652 H 0.0 **** 0.06
10151 C 141.88844392482252 139.49821158968263 67.24255510642497 C 0.0 **** -0.24
10152 H 141.6233155983004 138.9588093457678 66.33265039742548 H 0.0 **** 0.06
10153 H 142.71396396145832 140.1784520299044 67.03359345870197 H 0.0 **** 0.06
10154 H 142.18886327040582 138.7863749478209 68.01174376207864 H 0.0 **** 0.06
10155 H 141.02632510572204 140.06780765004595 67.59070859656842 H 0.0 **** 0.06
10156 C 42.44590989085199 148.99011394275277 108.93003344082786 C 0.0 **** -0.24
10157 H 42.89568642295467 148.81681140922763 107.95272967521419 H 0.0 **** 0.06
10158 H 43.18711681470428 148.81175948010304 109.70869468315948 H 0.0 **** 0.06
10159 H 41.60396131666187 148.3114486657051 109.0675776529884 H 0.0 **** 0.06
10160 H 42.09457775513542 150.0204217858116 108.99028171410203 H 0.0 **** 0.06
10161 C 69.5265950945664 16.07120856226618 151.80112096557787 C 0.0 **** -0.24
10162 H 69.47842446681561 15.82540097784414 150.74082781878224 H 0.0 **** 0.06
10163 H 70.49499158165187 16.520156950534727 152.0263941351599 H 0.0 **** 0.06
10164 H 69.40125831980671 15.163601874408187 152.3915218078434 H 0.0 **** 0.06
10165 H 68.73340590243433 16.777188448877837 152.0474188975744 H 0.0 **** 0.06
10166 C 61.37658736449538 79.52587787388205 133.74307243188798 C 0.0 **** -0.24
10167 H 60.38494804269368 79.1395127516267 133.98123800834838 H 0.0 **** 0.06
10168 H 61.59297045763175 79.34578876665533 132.69052760670127 H 0.0 **** 0.06
10169 H 62.12025258347148 79.02092904747383 134.35913661221542 H 0.0 **** 0.06
10170 H 61.40618894443534 80.5968560141498 133.9423157995712 H 0.0 **** 0.06
10171 C 32.82320276042449 107.12950885217636 66.80151662767531 C 0.0 **** -0.24
10172 H 32.89489841267306 106.09020876427478 66.48020457616565 H 0.0 **** 0.06
10173 H 33.36699483305233 107.76411782941283 66.10205684998434 H 0.0 **** 0.06
10174 H 33.25560696772936 107.23196234652606 67.79728179520703 H 0.0 **** 0.06
10175 H 31.776178496520004 107.43032652250999 66.82801695220621 H 0.0 **** 0.06
10176 C 113.57102968078487 174.50692794731287 57.528884670356746 C 0.0 **** -0.24
10177 H 114.20176417546452 174.18299017038862 56.70032163340824 H 0.0 **** 0.06
10178 H 114.19922998614163 174.83290583876487 58.35786908161626 H 0.0 **** 0.06
10179 H 112.94268628917041 173.6773640942224 57.85206224167791 H 0.0 **** 0.06
10180 H 112.94033382542659 175.33487998428598 57.201998488320996 H 0.0 **** 0.06
10181 C 40.65048516005635 66.18534931074437 94.96986239045924 C 0.0 **** -0.24
10182 H 41.15096941380928 66.85582942489259 94.27092727023472 H 0.0 **** 0.06
10183 H 40.48511058775439 65.21982839562315 94.49220983120676 H 0.0 **** 0.06
10184 H 39.69186958823151 66.6162868335578 95.26159590082352 H 0.0 **** 0.06
10185 H 41.27324049052487 66.052834165944 95.85467304944393 H 0.0 **** 0.06
10186 C 82.7200568876285 145.99248125754985 99.93759158454812 C 0.0 **** -0.24
10187 H 83.15602043576489 146.85974244897477 100.43290477830489 H 0.0 **** 0.06
10188 H 83.16850115874627 145.082887859619 100.33648246733704 H 0.0 **** 0.06
10189 H 82.91079472804107 146.05227566903864 98.86508651684913 H 0.0 **** 0.06
10190 H 81.64472269800228 145.975804491849 100.1147317178209 H 0.0 **** 0.06
10191 C 3.510728767851532 45.88657141826472 18.77680914953484 C 0.0 **** -0.24
10192 H 2.6014767164460295 45.34386975725897 18.516566955928482 H 0.0 **** 0.06
10193 H 4.256841908099204 45.18555220861333 19.151372389177197 H 0.0 **** 0.06
10194 H 3.2859343382375528 46.62381334852495 19.546946241779665 H 0.0 **** 0.06
10195 H 3.8984563593926964 46.39165134574991 17.89232911246998 H 0.0 **** 0.06
10196 C 49.56053408281346 85.1785607861882 83.1247845005621 C 0.0 **** -0.24
10197 H 49.03719684760671 86.0888530543192 82.83010243642134 H 0.0 **** 0.06
10198 H 48.84787163115354 84.35516636511005 83.1875639773091 H 0.0 **** 0.06
10199 H 50.03027258155237 85.32827244512094 84.09635873785412 H 0.0 **** 0.06
10200 H 50.32411150090397 84.94248185014976 82.38323771179357 H 0.0 **** 0.06
10201 C 30.18585015901951 181.49442277184679 132.35908114016718 C 0.0 **** -0.24
10202 H 30.31991573452281 181.12465624642795 133.37495980761264 H 0.0 **** 0.06
10203 H 29.78085187870886 180.69888935739533 131.73350832583827 H 0.0 **** 0.06
10204 H 31.1480744544849 181.8171847589085 131.9595507820839 H 0.0 **** 0.06
10205 H 29.495170141585135 182.33815694852672 132.36786397096506 H 0.0 **** 0.06
10206 C 70.93719105096875 59.14289682071387 135.762580777322 C 0.0 **** -0.24
10207 H 71.2010497834392 58.10318936356906 135.56823741364082 H 0.0 **** 0.06
10208 H 70.72866168034341 59.647280119083916 134.8185784595264 H 0.0 **** 0.06
10209 H 71.76578121768495 59.640204436756775 136.26554678309049 H 0.0 **** 0.06
10210 H 70.05166831470123 59.17935595959297 136.39789456020043 H 0.0 **** 0.06
10211 C 141.78989570538937 26.38833509299809 174.51128206877178 C 0.0 **** -0.24
10212 H 141.56937761055156 27.42857596369879 174.74945227678984 H 0.0 **** 0.06
10213 H 141.34126442701717 25.740518476962336 175.26418575704798 H 0.0 **** 0.06
10214 H 142.8705799901158 26.240200010232115 174.501490127615 H 0.0 **** 0.06
10215 H 141.38121434858607 26.14491284251659 173.53105174089978 H 0.0 **** 0.06
10216 C 82.24904004677353 68.27533931237959 96.63947640267058 C 0.0 **** -0.24
10217 H 82.44849492228207 69.00263572526448 97.42671464688972 H 0.0 **** 0.06
10218 H 83.00778788782793 67.49310209017334 96.66677129144266 H 0.0 **** 0.06
10219 H 82.27651824807049 68.77417185474779 95.67001189085299 H 0.0 **** 0.06
10220 H 81.26495766611077 67.83356276862469 96.79300390275428 H 0.0 **** 0.06
10221 C 16.12597201764055 139.3188120885426 67.89279479692615 C 0.0 **** -0.24
10222 H 16.18850023716101 138.233131411319 67.96854476871759 H 0.0 **** 0.06
10223 H 15.086370001473824 139.63048761138901 67.99889100829219 H 0.0 **** 0.06
10224 H 16.503096187113414 139.63661448970186 66.92123350994132 H 0.0 **** 0.06
10225 H 16.724285080339172 139.77271443511216 68.68233674275173 H 0.0 **** 0.06
10226 C 85.50144267101906 17.585002100064663 159.4481677837462 C 0.0 **** -0.24
10227 H 86.24131894509652 16.792147893545945 159.33273511696797 H 0.0 **** 0.06
10228 H 85.93528211932296 18.53382357096723 159.13093673594184 H 0.0 **** 0.06
10229 H 85.20369037568653 17.652749289792283 160.49394845984648 H 0.0 **** 0.06
10230 H 84.6290711820625 17.360265658775205 158.8352829191029 H 0.0 **** 0.06
10231 C 133.73206901427284 134.98319532082746 104.91103744790955 C 0.0 **** -0.24
10232 H 133.81201186730425 134.28582451702368 104.07769091568686 H 0.0 **** 0.06
10233 H 132.8486758943185 135.60820969260322 104.77876120542497 H 0.0 **** 0.06
10234 H 134.621353004507 135.6140641512714 104.94457716006626 H 0.0 **** 0.06
10235 H 133.64697011212291 134.42700314728825 105.84487459621049 H 0.0 **** 0.06
10236 C 54.60072078493664 84.70049292938482 17.4737566935138 C 0.0 **** -0.24
10237 H 53.94200986646024 84.18873522353452 18.17548266738514 H 0.0 **** 0.06
10238 H 54.81671724752255 85.70309548284568 17.844987147713148 H 0.0 **** 0.06
10239 H 54.11147014613363 84.77098197185734 16.502120713226354 H 0.0 **** 0.06
10240 H 55.530559335217845 84.14207248085873 17.373431239783912 H 0.0 **** 0.06
10241 C 161.3899088661548 169.72071140051295 5.281575626971893 C 0.0 **** -0.24
10242 H 161.28716861290064 170.8036643808195 5.218992680397768 H 0.0 **** 0.06
10243 H 161.8355674600187 169.45223951647716 6.239093571590033 H 0.0 **** 0.06
10244 H 162.02984703568896 169.3695874545293 4.4720841344038575 H 0.0 **** 0.06
10245 H 160.4074780815889 169.25660047090952 5.194070399388302 H 0.0 **** 0.06
10246 C 133.78945696935557 94.69005081782247 185.41498476443803 C 0.0 **** -0.24
10247 H 134.38613843067543 95.60151745308862 185.43120648027298 H 0.0 **** 0.06
10248 H 133.58525842755733 94.40825520386404 184.38180251415383 H 0.0 **** 0.06
10249 H 132.84885603062122 94.86248291838457 185.9388047969535 H 0.0 **** 0.06
10250 H 134.33791343502014 93.88863019849735 185.9099745211235 H 0.0 **** 0.06
10251 C 106.18136377479833 74.81165098434462 48.16097596980252 C 0.0 **** -0.24
10252 H 105.98682866649231 73.83751058021733 47.71055176220494 H 0.0 **** 0.06
10253 H 107.06326881016865 75.25643146779407 47.69719018180278 H 0.0 **** 0.06
10254 H 106.35571258911962 74.68914765485704 49.23012647275094 H 0.0 **** 0.06
10255 H 105.32096623009404 75.46188444216443 48.0052619381694 H 0.0 **** 0.06
10256 C 128.26356079858675 102.28994994777808 58.03115209815536 C 0.0 **** -0.24
10257 H 129.19044414561262 101.83034303103629 57.68685553148731 H 0.0 **** 0.06
10258 H 128.4966381999721 103.17041193268624 58.63000181447302 H 0.0 **** 0.06
10259 H 127.70661885781237 101.57481468590198 58.634819675160315 H 0.0 **** 0.06
10260 H 127.66405162900924 102.5843442357703 57.17016190991279 H 0.0 **** 0.06
10261 C 117.89792250984611 53.05947593254385 86.33896992797713 C 0.0 **** -0.24
10262 H 117.79531027805272 54.140013882702874 86.24326825440062 H 0.0 **** 0.06
10263 H 117.53219278154266 52.744717976983225 87.31706378491458 H 0.0 **** 0.06
10264 H 118.94791376861788 52.78475546559554 86.23836483824215 H 0.0 **** 0.06
10265 H 117.31760689385736 52.568274653091635 85.55866651079151 H 0.0 **** 0.06
10266 C 118.95405131467366 22.554162898405025 154.02280616399156 C 0.0 **** -0.24
10267 H 118.82353220486631 22.610699046254126 152.94245771490395 H 0.0 **** 0.06
10268 H 118.31819417292401 23.296794762506494 154.5049430502995 H 0.0 **** 0.06
10269 H 119.99745985407775 22.750762296218852 154.27204238475989 H 0.0 **** 0.06
10270 H 118.67987574932555 21.558193457585787 154.37010860675812 H 0.0 **** 0.06
10271 C 34.53888921430814 123.93944456268586 99.22632260842062 C 0.0 **** -0.24
10272 H 34.72718482908783 124.55855110404953 98.34863232164838 H 0.0 **** 0.06
10273 H 33.4630970903755 123.84410509460282 99.3795025651138 H 0.0 **** 0.06
10274 H 34.9914029517177 124.40379070435021 100.10233421422151 H 0.0 **** 0.06
10275 H 34.97219284861063 122.95137611562727 99.0733453188551 H 0.0 **** 0.06
10276 C 22.68638160970022 169.99223323308496 116.92839591205025 C 0.0 **** -0.24
10277 H 23.205426435215088 169.40939073926575 116.16817394858562 H 0.0 **** 0.06
10278 H 22.29941308972073 170.90790769159958 116.483461123487 H 0.0 **** 0.06
10279 H 23.381122510650584 170.2427391521456 117.73032872624007 H 0.0 **** 0.06
10280 H 21.860576387867923 169.40610015384186 117.33389209883158 H 0.0 **** 0.06
10281 C 130.35998142022294 172.96560389806862 152.20090140320713 C 0.0 **** -0.24
10282 H 130.93575807740916 173.59737799806405 152.87699465296447 H 0.0 **** 0.06
10283 H 129.4920362295773 173.5174528048565 151.83890097045546 H 0.0 **** 0.06
10284 H 130.028263682572 172.07305967476663 152.73000865011375 H 0.0 **** 0.06
10285 H 130.98438451993042 172.67583431967313 151.35524796040755 H 0.0 **** 0.06
10286 C 74.34801558389296 9.721552419407999 58.269195289933066 C 0.0 **** -0.24
10287 H 73.26564462807266 9.798609256271106 58.1680483124199 H 0.0 **** 0.06
10288 H 74.6433205670772 8.673245528895876 58.22026672552843 H 0.0 **** 0.06
10289 H 74.65397302646141 10.141902765417626 59.22649720641091 H 0.0 **** 0.06
10290 H 74.82752098786915 10.272346305278944 57.460119878656926 H 0.0 **** 0.06
10291 C 115.35556416918307 171.70033807053144 185.07009485850932 C 0.0 **** -0.24
10292 H 115.35578588384693 171.88209056705898 183.9950965525824 H 0.0 **** 0.06
10293 H 115.36298014495539 172.6541406025565 185.59875838621394 H 0.0 **** 0.06
10294 H 116.24123053115385 171.12668722580628 185.34111171754768 H 0.0 **** 0.06
10295 H 114.46183843692786 171.13981384834656 185.34370455769954 H 0.0 **** 0.06
10296 C 158.4994705492389 172.55914144560714 105.74022151905486 C 0.0 **** -0.24
10297 H 157.60286548076687 172.26856042490365 105.19262551174184 H 0.0 **** 0.06
10298 H 158.44265151236561 172.17492985879142 106.7592914124774 H 0.0 **** 0.06
10299 H 158.57235547854094 173.64683923831788 105.76479150657782 H 0.0 **** 0.06
10300 H 159.37810673189583 172.14682295660413 105.24436339421426 H 0.0 **** 0.06
10301 C 167.99494933771825 37.904214234112246 144.29065870184925 C 0.0 **** -0.24
10302 H 167.87884624963266 36.82773374997093 144.41375698430008 H 0.0 **** 0.06
10303 H 168.882216666413 38.23761667307316 144.830649360118 H 0.0 **** 0.06
10304 H 167.11555699269002 38.41202974369219 144.68620877986024 H 0.0 **** 0.06
10305 H 168.1052264572911 38.13813616034223 143.23195296201357 H 0.0 **** 0.06
10306 C 169.11043152138873 121.20776598290371 12.437554611200682 C 0.0 **** -0.24
10307 H 168.69082778484534 120.39712449500036 11.8416003745578 H 0.0 **** 0.06
10308 H 169.89723501102472 120.81542428232683 13.0812157036018 H 0.0 **** 0.06
10309 H 168.32665423390205 121.65163713171387 13.05050151237458 H 0.0 **** 0.06
10310 H 169.5274841918962 121.96639046095521 11.775308182461004 H 0.0 **** 0.06
10311 C 41.75721946574532 68.06102015459655 84.58736104957504 C 0.0 **** -0.24
10312 H 42.003458083388125 68.09359736762836 85.64839998226039 H 0.0 **** 0.06
10313 H 42.415301438990525 67.3533206332768 84.08312214900344 H 0.0 **** 0.06
10314 H 41.889341854774955 69.052436299383 84.15383126911662 H 0.0 **** 0.06
10315 H 40.72054638387431 67.74601145385901 84.4646344233394 H 0.0 **** 0.06
10316 C 52.67098402414466 3.075529339729421 88.32697731437115 C 0.0 **** -0.24
10317 H 52.919749573086946 3.0987942800472297 89.38797722413979 H 0.0 **** 0.06
10318 H 53.48982585443754 3.5101283468895232 87.75265932686365 H 0.0 **** 0.06
10319 H 51.760725613203036 3.6501817583150284 88.15460679379625 H 0.0 **** 0.06
10320 H 52.51465774849518 2.0436325839658167 88.01342104993243 H 0.0 **** 0.06
10321 C 38.4326956797062 61.30974678238036 44.84207489186588 C 0.0 **** -0.24
10322 H 38.83514437828042 60.95531489080645 45.791279008044796 H 0.0 **** 0.06
10323 H 38.52898445933013 60.5248382322641 44.09137893360392 H 0.0 **** 0.06
10324 H 38.986009071673095 62.191521526334256 44.5196342876404 H 0.0 **** 0.06
10325 H 37.38087106081629 61.56567538450976 44.96751360903676 H 0.0 **** 0.06
10326 C 116.10302868881602 117.6918726710147 8.371961781331265 C 0.0 **** -0.24
10327 H 116.61606310574827 117.05152120834221 9.090693370458382 H 0.0 **** 0.06
10328 H 116.58263931376554 118.6704755119181 8.350456138415495 H 0.0 **** 0.06
10329 H 115.0587367063114 117.80402375642625 8.66605494670037 H 0.0 **** 0.06
10330 H 116.15450480181728 117.23936151663689 7.38187733148456 H 0.0 **** 0.06
10331 C 52.36031293681333 48.4663175875819 96.25879838995989 C 0.0 **** -0.24
10332 H 52.76347637107769 47.76578815720734 96.99066733024198 H 0.0 **** 0.06
10333 H 52.027219211510925 49.371169026198515 96.76885216254247 H 0.0 **** 0.06
10334 H 51.51732578722756 48.00688014310691 95.74382146422276 H 0.0 **** 0.06
10335 H 53.13464244354205 48.72107454262897 95.5348321719993 H 0.0 **** 0.06
10336 C 111.98406245750424 141.11851506583184 75.12344877925361 C 0.0 **** -0.24
10337 H 111.29501967636598 141.1055319917278 74.27929130867419 H 0.0 **** 0.06
10338 H 112.98723070253804 141.35963806596072 74.77099374773088 H 0.0 **** 0.06
10339 H 111.99185719992546 140.13866315404562 75.60034480962307 H 0.0 **** 0.06
10340 H 111.66109240441826 141.86953068617993 75.84435393560275 H 0.0 **** 0.06
10341 C 56.9624711883597 154.9208886579443 20.644981853749442 C 0.0 **** -0.24
10342 H 56.601770248950686 155.81702980737148 20.13963420419043 H 0.0 **** 0.06
10343 H 57.98283038687089 154.70917756183152 20.3235461525326 H 0.0 **** 0.06
10344 H 56.31981288138792 154.07814668936592 20.39269906072215 H 0.0 **** 0.06
10345 H 56.94651729558399 155.08110986082949 21.722925264772186 H 0.0 **** 0.06
10346 C 28.517795267238853 7.225073133380349 55.01074047595233 C 0.0 **** -0.24
10347 H 27.709522370541436 7.781094023310359 55.4852613354405 H 0.0 **** 0.06
10348 H 28.65147492200731 6.272216429379434 55.52238312660728 H 0.0 **** 0.06
10349 H 29.440373232062598 7.802624034677606 55.0697338718617 H 0.0 **** 0.06
10350 H 28.267879159272468 7.044821074050056 53.96455620411871 H 0.0 **** 0.06
10351 C 61.30556298787198 128.51847190524018 107.89238600018952 C 0.0 **** -0.24
10352 H 61.85437516121715 129.35476136900792 107.45880728086355 H 0.0 **** 0.06
10353 H 60.234792646492 128.70097907960388 107.80123024248054 H 0.0 **** 0.06
10354 H 61.569175894440804 128.41893710287394 108.94543083626313 H 0.0 **** 0.06
10355 H 61.56473983443337 127.60144788571256 107.36462408714227 H 0.0 **** 0.06
10356 C 33.878683621765305 37.43352709883112 131.5428149059773 C 0.0 **** -0.24
10357 H 33.87373621159267 36.34660644652047 131.45664414335295 H 0.0 **** 0.06
10358 H 32.90797657981824 37.82705413061822 131.23940148470058 H 0.0 **** 0.06
10359 H 34.65581188990015 37.84447636597423 130.8973377559583 H 0.0 **** 0.06
10360 H 34.078522699805816 37.71451306891876 132.5768040687613 H 0.0 **** 0.06
10361 C 141.46392917232527 118.35377824919398 164.65928974055018 C 0.0 **** -0.24
10362 H 140.5143995639915 118.84191601838127 164.43964820295363 H 0.0 **** 0.06
10363 H 142.01338696192659 118.19167342277068 163.73181438611016 H 0.0 **** 0.06
10364 H 141.27608571444136 117.39549317410363 165.14386369874128 H 0.0 **** 0.06
10365 H 142.05233623554312 118.98687052570968 165.3238457385415 H 0.0 **** 0.06
10366 C 87.41087430139504 125.44469843312442 182.13903212674998 C 0.0 **** -0.24
10367 H 86.69777960806533 125.10903550903998 181.38594067921017 H 0.0 **** 0.06
10368 H 88.01674648497794 126.25385677506245 181.72906739384263 H 0.0 **** 0.06
10369 H 88.05678330187345 124.61411912253703 182.4216660003131 H 0.0 **** 0.06
10370 H 86.87192357900881 125.80159616089179 183.0164718598003 H 0.0 **** 0.06
10371 C 105.97993885202345 91.85751908186354 79.6569156695106 C 0.0 **** -0.24
10372 H 106.17108096878349 90.89304316900218 79.18538805389821 H 0.0 **** 0.06
10373 H 105.5941530641029 92.55496264229181 78.91225587439695 H 0.0 **** 0.06
10374 H 106.90716247350048 92.24690311508643 80.07522147893997 H 0.0 **** 0.06
10375 H 105.24504435530554 91.73268639799177 80.45245464005998 H 0.0 **** 0.06
10376 C 110.17683233018802 115.46307255442535 73.82986632042606 C 0.0 **** -0.24
10377 H 110.36117499321917 115.66207198038053 72.77361852636405 H 0.0 **** 0.06
10378 H 109.62166614888092 114.53014770166227 73.93191099170767 H 0.0 **** 0.06
10379 H 109.59651250111715 116.28160178047459 74.25681150259452 H 0.0 **** 0.06
10380 H 111.12858518588094 115.38002148188026 74.35484002438162 H 0.0 **** 0.06
10381 C 168.5636114967729 114.44238550176881 67.18325682986233 C 0.0 **** -0.24
10382 H 168.53109418361737 114.73657041705435 68.2331321872968 H 0.0 **** 0.06
10383 H 168.02311000704307 113.50421958705361 67.05298692509083 H 0.0 **** 0.06
10384 H 169.6005513223106 114.30980958196527 66.8749083550573 H 0.0 **** 0.06
10385 H 168.0992738688705 115.21717668366064 66.57477633963668 H 0.0 **** 0.06
10386 C 11.067066218181772 149.25446486985564 57.45063629695446 C 0.0 **** -0.24
10387 H 11.14323266983665 148.9589771139473 58.49708984245174 H 0.0 **** 0.06
10388 H 10.306842111553749 150.0299754305151 57.34651572722868 H 0.0 **** 0.06
10389 H 10.789293339825093 148.38952969329404 56.84802801692172 H 0.0 **** 0.06
10390 H 12.029097812753179 149.64005473762668 57.112136600411816 H 0.0 **** 0.06
10391 C 105.10556221172742 31.03663405438887 140.21493641446688 C 0.0 **** -0.24
10392 H 104.22201381896154 31.645963704693003 140.02327266647882 H 0.0 **** 0.06
10393 H 105.8048000958169 31.140540128062426 139.3848488954839 H 0.0 **** 0.06
10394 H 104.81073760466647 29.99168911130009 140.31437431198958 H 0.0 **** 0.06
10395 H 105.58255092258973 31.36884735995835 141.13687700176746 H 0.0 **** 0.06
10396 C 137.33916313123342 92.35763030104386 161.9806749134933 C 0.0 **** -0.24
10397 H 138.31690693455164 92.10921121401822 161.56859802664428 H 0.0 **** 0.06
10398 H 136.89486423131893 91.46557094017487 162.42335648421357 H 0.0 **** 0.06
10399 H 136.69349148445707 92.72906471949665 161.18522853069075 H 0.0 **** 0.06
10400 H 137.45197265934297 93.12589388825768 162.74529012490984 H 0.0 **** 0.06
10401 C 144.15934853257352 179.07250731340116 58.97531486656173 C 0.0 **** -0.24
10402 H 145.13485897255848 179.54492373228243 58.859757637914 H 0.0 **** 0.06
10403 H 143.52888705187814 179.69349200726703 59.612335835032624 H 0.0 **** 0.06
10404 H 144.28359996597533 178.0909225390676 59.43327478780057 H 0.0 **** 0.06
10405 H 143.69213613384179 178.96123404582013 57.99772029079446 H 0.0 **** 0.06
10406 C 174.38923971975473 67.86064230394177 15.939092666314792 C 0.0 **** -0.24
10407 H 174.61039734620712 68.81350029942217 16.4219998582642 H 0.0 **** 0.06
10408 H 175.29164832783317 67.25023124477542 15.912178071902986 H 0.0 **** 0.06
10409 H 174.04117542056335 68.04148904220574 14.922311443960211 H 0.0 **** 0.06
10410 H 173.61442280432462 67.34052566994052 16.501735342616115 H 0.0 **** 0.06
10411 C 157.54365832801625 81.0746446624778 105.32137696226467 C 0.0 **** -0.24
10412 H 157.79337745213894 82.11942380215459 105.50453606237711 H 0.0 **** 0.06
10413 H 156.63995312331912 80.81384690280873 105.87382409921433 H 0.0 **** 0.06
10414 H 158.36658897968874 80.44097388360944 105.652338975792 H 0.0 **** 0.06
10415 H 157.3741109852829 80.92305884612585 104.25491138566055 H 0.0 **** 0.06
10416 C 1.8671585551069825 5.6325532232418425 105.58398587122771 C 0.0 **** -0.24
10417 H 2.4900137566956886 4.88533942978745 106.07623308540782 H 0.0 **** 0.06
10418 H 0.8216256418360786 5.332626463297942 105.64866360156624 H 0.0 **** 0.06
10419 H 2.157833868492588 5.714816445678792 104.53679010055417 H 0.0 **** 0.06
10420 H 2.0005486667916017 6.596604177332949 106.07580313729277 H 0.0 **** 0.06
10421 C 103.80842849943706 151.9073769195167 44.66897134466896 C 0.0 **** -0.24
10422 H 103.14591462059819 151.328472914712 45.31263653958666 H 0.0 **** 0.06
10423 H 104.67112644657028 152.24415362920138 45.24435737048145 H 0.0 **** 0.06
10424 H 103.27104627810094 152.77211405664667 44.279400554755114 H 0.0 **** 0.06
10425 H 104.14490874163126 151.2841004273884 43.84051083103799 H 0.0 **** 0.06
10426 C 51.99487587846201 104.73646239298495 40.77196053096756 C 0.0 **** -0.24
10427 H 51.703134155908444 105.43663817610735 41.55458687691622 H 0.0 **** 0.06
10428 H 51.12619924358998 104.48975702646106 40.162689085639485 H 0.0 **** 0.06
10429 H 52.39055969909863 103.82862737483237 41.22721458560606 H 0.0 **** 0.06
10430 H 52.761307940743166 105.19192541409564 40.14473433742741 H 0.0 **** 0.06
10431 C 78.839061532946 156.96173256555775 9.484214776737126 C 0.0 **** -0.24
10432 H 79.43435229964467 157.05325296038552 10.392335510470176 H 0.0 **** 0.06
10433 H 78.55128812815184 155.91973929738614 9.341404129498159 H 0.0 **** 0.06
10434 H 79.42594424092977 157.29761277431209 8.629822294215238 H 0.0 **** 0.06
10435 H 77.94309596240521 157.57702446594584 9.573051508054824 H 0.0 **** 0.06
10436 C 79.36252942251556 157.89196220602298 1.7158792048909817 C 0.0 **** -0.24
10437 H 79.64802042487709 158.5179930363321 0.8701371253784487 H 0.0 **** 0.06
10438 H 80.25300638408918 157.62149529326499 2.283682694776381 H 0.0 **** 0.06
10439 H 78.87527610274874 156.98850571757745 1.3495816043027276 H 0.0 **** 0.06
10440 H 78.67419508376202 158.44135300296324 2.3584995949697003 H 0.0 **** 0.06
10441 C 42.980115851181154 94.81850207659691 104.73755787133514 C 0.0 **** -0.24
10442 H 43.837142261301736 95.00785203038468 105.38313100128947 H 0.0 **** 0.06
10443 H 42.070924423485366 94.79390616621491 105.33858895320368 H 0.0 **** 0.06
10444 H 43.10869767438919 93.86020671173684 104.23470295949086 H 0.0 **** 0.06
10445 H 42.903257451457364 95.61116575940322 103.99362210479835 H 0.0 **** 0.06
10446 C 115.0637086705478 8.682612532963958 109.69049057211292 C 0.0 **** -0.24
10447 H 115.07353452194202 9.31363876904723 108.8020246502149 H 0.0 **** 0.06
10448 H 114.58613627509429 9.217790912169534 110.51094840856312 H 0.0 **** 0.06
10449 H 116.08619725119804 8.428471121380454 109.96746092429684 H 0.0 **** 0.06
10450 H 114.5065066940408 7.769095200869572 109.4795701167195 H 0.0 **** 0.06
10451 C 180.22271171286127 142.40959894129622 127.86109195962236 C 0.0 **** -0.24
10452 H 180.71242278939866 142.90145270654202 128.7011546251706 H 0.0 **** 0.06
10453 H 179.4239145876104 143.04721570641686 127.48249141353797 H 0.0 **** 0.06
10454 H 179.80501362711814 141.4589762425931 128.19077684870513 H 0.0 **** 0.06
10455 H 180.951801821758 142.23238599128638 127.06984574633388 H 0.0 **** 0.06
10456 C 172.5256870216743 177.14249741297738 95.0868414633619 C 0.0 **** -0.24
10457 H 173.4591208838085 177.04023503937196 95.63880337651852 H 0.0 **** 0.06
10458 H 172.3457670893774 176.2375097443234 94.50585822705489 H 0.0 **** 0.06
10459 H 172.59305892522164 177.998830789127 94.41462603755065 H 0.0 **** 0.06
10460 H 171.7038246446352 177.294589219848 95.78678766765415 H 0.0 **** 0.06
10461 C 17.721916463619607 19.077712673488918 32.22127534323943 C 0.0 **** -0.24
10462 H 18.667751472179475 18.75914694941497 32.659168449753906 H 0.0 **** 0.06
10463 H 17.58274768945813 18.582299425832417 31.258963440895684 H 0.0 **** 0.06
10464 H 17.733809407215205 20.157221179312273 32.076360654923576 H 0.0 **** 0.06
10465 H 16.903792424675856 18.808223489163197 32.88954475774614 H 0.0 **** 0.06
10466 C 119.10780915500071 137.7052310882654 12.298395081219667 C 0.0 **** -0.24
10467 H 118.44490780737415 137.9436869712344 11.466737727052703 H 0.0 **** 0.06
10468 H 119.5097241706968 138.62732118708124 12.718632561757204 H 0.0 **** 0.06
10469 H 119.92693761501009 137.07989354577376 11.943471308571475 H 0.0 **** 0.06
10470 H 118.54801907151908 137.16973701922166 13.066222904781512 H 0.0 **** 0.06
10471 C 34.53432617920848 4.604184547601108 61.82093121736115 C 0.0 **** -0.24
10472 H 35.062279519847294 5.5476080923276925 61.95818877354952 H 0.0 **** 0.06
10473 H 34.82256935710657 4.162050155742065 60.86756486718937 H 0.0 **** 0.06
10474 H 33.459139156113665 4.786757251628131 61.82688674415566 H 0.0 **** 0.06
10475 H 34.79147117810231 3.9226821752777425 62.63091966999829 H 0.0 **** 0.06
10476 C 44.77056315664359 18.905923090971385 106.94989616300296 C 0.0 **** -0.24
10477 H 43.9661946399265 19.44417487601703 107.45140156838477 H 0.0 **** 0.06
10478 H 45.09369387065777 18.07220023946877 107.57397559185927 H 0.0 **** 0.06
10479 H 45.60956946374907 19.581571103936028 106.78262527467922 H 0.0 **** 0.06
10480 H 44.4116527108732 18.52746183153613 105.99244969121321 H 0.0 **** 0.06
10481 C 122.28006806992927 165.32614703858934 135.44622051655665 C 0.0 **** -0.24
10482 H 122.300020700948 164.38317931662448 135.99185419523292 H 0.0 **** 0.06
10483 H 122.71197629382372 166.11344888910418 136.0649849904148 H 0.0 **** 0.06
10484 H 121.24906161580897 165.58079493215644 135.20041874997384 H 0.0 **** 0.06
10485 H 122.85843090127734 165.2266740359737 134.52800654052055 H 0.0 **** 0.06
10486 C 82.76663099889859 30.882155828546516 108.24684677791903 C 0.0 **** -0.24
10487 H 83.26594509685259 30.920150183940564 107.279633679257 H 0.0 **** 0.06
10488 H 83.51357994945343 30.867865761906927 109.04099439638496 H 0.0 **** 0.06
10489 H 82.15651738975319 29.98083339685536 108.30514445579048 H 0.0 **** 0.06
10490 H 82.13041073210427 31.76014963644313 108.36297616341888 H 0.0 **** 0.06
10491 C 96.58426987252454 132.31252686499988 70.88817064918197 C 0.0 **** -0.24
10492 H 97.63214882858125 132.05443353381543 70.73843466854595 H 0.0 **** 0.06
10493 H 96.11680829908983 131.5715788796001 71.53754276966356 H 0.0 **** 0.06
10494 H 96.07158829743707 132.32620455639324 69.92499831179629 H 0.0 **** 0.06
10495 H 96.5148145134687 133.29778145881983 71.34996575424452 H 0.0 **** 0.06
10496 C 141.2631717438902 184.38532937665474 76.53586604272482 C 0.0 **** -0.24
10497 H 141.34009484774708 185.3174262678239 75.97525779531455 H 0.0 **** 0.06
10498 H 141.72521047928956 183.57963335888147 75.96462483454239 H 0.0 **** 0.06
10499 H 140.21283043916458 184.1526961469408 76.70868463252947 H 0.0 **** 0.06
10500 H 141.77430244461254 184.4933426178823 77.49249549487213 H 0.0 **** 0.06
10501 C 55.10024689024094 135.41001664983708 114.93475521447158 C 0.0 **** -0.24
10502 H 54.55149547318719 136.31879691380726 115.18042910220629 H 0.0 **** 0.06
10503 H 55.111632334453446 134.74721988715743 115.80145138256444 H 0.0 **** 0.06
10504 H 56.12281406550608 135.66632778997007 114.65905190258917 H 0.0 **** 0.06
10505 H 54.614192781478806 134.90666354849765 114.09847867920666 H 0.0 **** 0.06
10506 C 165.01563980245933 2.1271003498062555 130.0609710290165 C 0.0 **** -0.24
10507 H 163.9891010437264 1.8639082733864925 129.81036692809408 H 0.0 **** 0.06
10508 H 165.20085119467873 1.9067196630158634 131.11224095380015 H 0.0 **** 0.06
10509 H 165.17262151681183 3.1907051873615657 129.8800625796062 H 0.0 **** 0.06
10510 H 165.70128288668008 1.5488866586319645 129.4411122826324 H 0.0 **** 0.06
10511 C 81.7096992254398 183.20225038434705 41.708162902107404 C 0.0 **** -0.24
10512 H 82.66954952011986 183.0395018535238 42.197754237656596 H 0.0 **** 0.06
10513 H 81.42673355014604 182.30596237163365 41.15748191256742 H 0.0 **** 0.06
10514 H 81.79175386882022 184.04235311117708 41.01903824741612 H 0.0 **** 0.06
10515 H 80.9517684918148 183.42177082460825 42.4609538247488 H 0.0 **** 0.06
10516 C 32.1145409944813 72.74519271333673 106.99585082725139 C 0.0 **** -0.24
10517 H 31.45826632926996 72.16523776039242 107.64613247720939 H 0.0 **** 0.06
10518 H 31.52828779805526 73.49386455784929 106.46312480048067 H 0.0 **** 0.06
10519 H 32.59397814837061 72.08011381339298 106.27873061784027 H 0.0 **** 0.06
10520 H 32.876539039180855 73.24051404229817 107.59869007301717 H 0.0 **** 0.06
10521 C 16.098474746944078 155.95729957809067 66.6678385947672 C 0.0 **** -0.24
10522 H 16.927026667214136 155.2512456002683 66.60557401053688 H 0.0 **** 0.06
10523 H 15.199839550239915 155.49970666160416 66.25211523689251 H 0.0 **** 0.06
10524 H 16.34418601848165 156.85521080480333 66.10095963065726 H 0.0 **** 0.06
10525 H 15.923523427197324 156.22157815492142 67.70998167203874 H 0.0 **** 0.06
10526 C 80.21448586214947 124.67169848976182 152.01807510850887 C 0.0 **** -0.24
10527 H 79.3337976692486 125.13129124961988 151.5696989721406 H 0.0 **** 0.06
10528 H 80.69982500435655 124.02689117025862 151.28523623949908 H 0.0 **** 0.06
10529 H 79.91507242185692 124.07989297339601 152.8823118546038 H 0.0 **** 0.06
10530 H 80.90914405888591 125.45031211910238 152.33319598824426 H 0.0 **** 0.06
10531 C 172.39432896232893 27.86911081070579 39.65627014309567 C 0.0 **** -0.24
10532 H 173.43329024650882 28.130122758878827 39.45711554343768 H 0.0 **** 0.06
10533 H 172.12497045048718 26.9841158697387 39.07905759073631 H 0.0 **** 0.06
10534 H 171.74989811729748 28.699942624339172 39.36871014824922 H 0.0 **** 0.06
10535 H 172.2694157541585 27.66211054381347 40.71849135835265 H 0.0 **** 0.06
10536 C 133.7342889246117 182.73043800081385 105.05278293601084 C 0.0 **** -0.24
10537 H 133.6096404071211 181.84045983850405 104.43612421751534 H 0.0 **** 0.06
10538 H 132.8492215477023 183.36014449027485 104.9640370629124 H 0.0 **** 0.06
10539 H 134.6104557226122 183.28519002537132 104.71632891338875 H 0.0 **** 0.06
10540 H 133.8687050236856 182.4353221190779 106.09328343311434 H 0.0 **** 0.06
10541 C 79.74839909056851 20.309638211063223 142.56599048356804 C 0.0 **** -0.24
10542 H 80.63525280110088 20.825178803591015 142.19937798780285 H 0.0 **** 0.06
10543 H 78.86137554609888 20.895875766121875 142.3242527246411 H 0.0 **** 0.06
10544 H 79.81916442233398 20.18757475093254 143.6469100677628 H 0.0 **** 0.06
10545 H 79.67660872071838 19.329352021638307 142.09391685133244 H 0.0 **** 0.06
10546 C 143.2427241122822 112.96194902195151 17.678789007947273 C 0.0 **** -0.24
10547 H 144.17653831017228 113.2391488413196 17.190674633517176 H 0.0 **** 0.06
10548 H 142.88451971357162 113.79789369890256 18.280211893171042 H 0.0 **** 0.06
10549 H 143.41058275473895 112.09746071659998 18.32080364900503 H 0.0 **** 0.06
10550 H 142.4972672212926 112.71398286617847 16.92271084339697 H 0.0 **** 0.06
10551 C 26.113194096292318 35.75254140174175 79.15028652866492 C 0.0 **** -0.24
10552 H 25.08168333529835 35.460484999955895 79.34712394945393 H 0.0 **** 0.06
10553 H 26.783489113164364 35.15848939453929 79.77184036921746 H 0.0 **** 0.06
10554 H 26.24208396250583 36.80939771763272 79.38201152131973 H 0.0 **** 0.06
10555 H 26.344157538865147 35.58053504882815 78.09892119213757 H 0.0 **** 0.06
10556 C 59.38740693408769 116.16085745518143 10.037507112386152 C 0.0 **** -0.24
10557 H 59.94796749144308 115.77853020027817 9.183942752494659 H 0.0 **** 0.06
10558 H 59.005803472561695 115.32541693515708 10.62440088216431 H 0.0 **** 0.06
10559 H 58.55470065340859 116.76710580426436 9.682354290243666 H 0.0 **** 0.06
10560 H 60.04324411100748 116.77148276153463 10.658413470804703 H 0.0 **** 0.06
10561 C 1.4197794101609134 40.87280002831727 81.75047806284194 C 0.0 **** -0.24
10562 H 0.35173112277851715 41.049472141931346 81.8751142044689 H 0.0 **** 0.06
10563 H 1.9375623953785635 41.10426918261203 82.68230488174369 H 0.0 **** 0.06
10564 H 1.8030929933180175 41.50953385601798 80.95354639891647 H 0.0 **** 0.06
10565 H 1.5876755666068902 39.82732829241485 81.49181400767904 H 0.0 **** 0.06
10566 C 21.644033454135638 39.290379479919835 39.801350559045034 C 0.0 **** -0.24
10567 H 22.38310131478903 38.68460575675303 40.32416909147311 H 0.0 **** 0.06
10568 H 22.150574430850384 40.06010777642547 39.21908777341956 H 0.0 **** 0.06
10569 H 20.980690746084186 39.7614345223796 40.527453848929895 H 0.0 **** 0.06
10570 H 21.05913083245683 38.65609567768729 39.133968818814935 H 0.0 **** 0.06
10571 C 101.61091652730796 151.42524812239603 158.2168267182038 C 0.0 **** -0.24
10572 H 102.11444106704057 151.69424791905135 157.28886094096555 H 0.0 **** 0.06
10573 H 100.83575394038608 150.687928945824 158.0087648245041 H 0.0 **** 0.06
10574 H 101.15790337932192 152.3146287852238 158.65581249013678 H 0.0 **** 0.06
10575 H 102.33556772248345 151.004186839485 158.91386861720878 H 0.0 **** 0.06
10576 C 183.49938255170645 62.778090905488895 135.10956785380938 C 0.0 **** -0.24
10577 H 184.3387357438849 62.94202352179886 135.7858811660023 H 0.0 **** 0.06
10578 H 182.6568252777882 63.396712349285195 135.41833169304857 H 0.0 **** 0.06
10579 H 183.21003409821193 61.72745323211038 135.13983870217686 H 0.0 **** 0.06
10580 H 183.79387115716298 63.04467471199004 134.09426843419266 H 0.0 **** 0.06
10581 C 154.7121661123069 126.46966333011345 107.89846742265819 C 0.0 **** -0.24
10582 H 155.5456618259142 126.34162261950381 107.20814371306095 H 0.0 **** 0.06
10583 H 153.85842326155722 126.88769140465389 107.36437187296919 H 0.0 **** 0.06
10584 H 155.00624721166702 127.14703080099285 108.70014564804127 H 0.0 **** 0.06
10585 H 154.4389455334336 125.50309060554086 108.32109850582749 H 0.0 **** 0.06
10586 C 85.032668290436 72.50644400914462 122.27142270434864 C 0.0 **** -0.24
10587 H 85.72794819568396 72.30494039976082 123.08703078423191 H 0.0 **** 0.06
10588 H 84.04256415859372 72.13704680448029 122.53951576593967 H 0.0 **** 0.06
10589 H 85.37711277186013 72.00229216621688 121.36842586909016 H 0.0 **** 0.06
10590 H 84.98496357206704 73.5798554785818 122.0926256135583 H 0.0 **** 0.06
10591 C 164.54339447180098 175.43903409476448 58.98865434915659 C 0.0 **** -0.24
10592 H 164.09154489584083 175.2521268712729 58.01363637251821 H 0.0 **** 0.06
10593 H 165.58739910918183 175.1272584758368 58.97137350324091 H 0.0 **** 0.06
10594 H 164.0064682773162 174.87469146629948 59.75156066044572 H 0.0 **** 0.06
10595 H 164.48614245810037 176.50404234489892 59.21664126063334 H 0.0 **** 0.06
10596 C 148.14800613262474 54.22925087827872 185.15879354238794 C 0.0 **** -0.24
10597 H 148.77152417231852 53.34758281819194 185.30631318046522 H 0.0 **** 0.06
10598 H 148.1972067842251 54.538602136910185 184.1140162949109 H 0.0 **** 0.06
10599 H 148.5083412961446 55.03848553439127 185.79508926049994 H 0.0 **** 0.06
10600 H 147.11675488161313 53.99364900395403 185.41989305224888 H 0.0 **** 0.06
10601 C 112.93875668644785 123.50553689529816 119.7309717966378 C 0.0 **** -0.24
10602 H 112.57428474214265 123.17290075404382 120.70347978691173 H 0.0 **** 0.06
10603 H 113.58899041489434 122.73909547426864 119.30587406670831 H 0.0 **** 0.06
10604 H 113.49955705563997 124.43234248064125 119.85177210720776 H 0.0 **** 0.06
10605 H 112.09327644791017 123.67520630413817 119.06477527543383 H 0.0 **** 0.06
10606 C 126.00562034272049 55.26640547619762 98.45972888972506 C 0.0 **** -0.24
10607 H 126.95576211089444 54.732736727681214 98.42945249631038 H 0.0 **** 0.06
10608 H 125.3665254223623 54.82646372370462 99.22544640007419 H 0.0 **** 0.06
10609 H 125.51534778975808 55.189950901326796 97.4889648106577 H 0.0 **** 0.06
10610 H 126.18514213001414 56.315713402389505 98.69446954229522 H 0.0 **** 0.06
10611 C 5.813987183782814 69.22918406824971 176.2919908066343 C 0.0 **** -0.24
10612 H 5.855446927435281 68.14063456226296 176.2480426785402 H 0.0 **** 0.06
10613 H 5.1096214772567805 69.595142592216 175.54495019593804 H 0.0 **** 0.06
10614 H 6.803748814455616 69.6390455387239 176.09210874271687 H 0.0 **** 0.06
10615 H 5.48600828328631 69.53985019172362 177.28355509781414 H 0.0 **** 0.06
10616 C 131.03090959824237 5.195680992202966 48.18886937224322 C 0.0 **** -0.24
10617 H 132.0493765707776 5.558522992104827 48.32514136969344 H 0.0 **** 0.06
10618 H 130.32864036168343 6.011282865434225 48.366210596723334 H 0.0 **** 0.06
10619 H 130.83515289983774 4.38853296824891 48.89432718833811 H 0.0 **** 0.06
10620 H 130.90935857290714 4.826250228552311 47.17093390959079 H 0.0 **** 0.06
10621 C 141.84418380793954 147.05294844263227 11.204077349652493 C 0.0 **** -0.24
10622 H 141.0869094778102 146.29709680125077 10.993159647580825 H 0.0 **** 0.06
10623 H 142.1929318139621 146.93915321886197 12.231037848529155 H 0.0 **** 0.06
10624 H 141.4136951593449 148.045163082268 11.073020232442417 H 0.0 **** 0.06
10625 H 142.68272916128353 146.92667941353744 10.518807913162647 H 0.0 **** 0.06
10626 C 93.97471301057567 97.35517079143138 17.510415495855362 C 0.0 **** -0.24
10627 H 93.35953427166368 97.02410996630131 16.672825351702798 H 0.0 **** 0.06
10628 H 94.92518425599042 97.73512191739293 17.13472954133588 H 0.0 **** 0.06
10629 H 94.15850909869226 96.51548242313426 18.18052877030901 H 0.0 **** 0.06
10630 H 93.45533373830204 98.14597498865372 18.052194297545974 H 0.0 **** 0.06
10631 C 168.22781103987498 102.66281321702036 165.08259029734836 C 0.0 **** -0.24
10632 H 167.6743118546903 102.50745376172011 166.00829945166947 H 0.0 **** 0.06
10633 H 169.09787068169425 103.28921545499321 165.28031441945532 H 0.0 **** 0.06
10634 H 167.58470708597463 103.1541056304203 164.35232703281255 H 0.0 **** 0.06
10635 H 168.5556589096453 101.69993207979059 164.68939558621415 H 0.0 **** 0.06
10636 C 102.02997380748242 12.35863941567839 43.9049485273664 C 0.0 **** -0.24
10637 H 102.418203208099 12.276685983362498 42.88948708399862 H 0.0 **** 0.06
10638 H 101.63601006265507 11.392993714389775 44.220759061698686 H 0.0 **** 0.06
10639 H 101.23334110146449 13.102225733687398 43.92946553503576 H 0.0 **** 0.06
10640 H 102.83184362312927 12.662045564972267 44.57685985435256 H 0.0 **** 0.06
10641 C 37.10730253438646 165.64968328434423 22.64627796981435 C 0.0 **** -0.24
10642 H 36.77484921162004 164.85714827478483 21.97602920681622 H 0.0 **** 0.06
10643 H 37.09804843728172 166.6020250897929 22.116045178851365 H 0.0 **** 0.06
10644 H 38.11856133533783 165.43345058428457 22.98954812395766 H 0.0 **** 0.06
10645 H 36.43667282568745 165.70526791494368 23.503849255385404 H 0.0 **** 0.06
10646 C 134.30384114117237 150.19695533565226 71.58413306842213 C 0.0 **** -0.24
10647 H 133.85260885555562 149.3694672298272 72.131432088111 H 0.0 **** 0.06
10648 H 134.0597178620792 150.10811931846126 70.52613953411064 H 0.0 **** 0.06
10649 H 135.38583733651575 150.16905581243182 71.71189928491879 H 0.0 **** 0.06
10650 H 133.9171231427601 151.14009004107828 71.969012864873 H 0.0 **** 0.06
10651 C 87.9099039797785 151.7977479504151 77.05082311835793 C 0.0 **** -0.24
10652 H 88.65477548192229 151.15785708434294 77.52342916663719 H 0.0 **** 0.06
10653 H 86.93390788786354 151.3147565386859 77.09826031808677 H 0.0 **** 0.06
10654 H 88.1839406319765 151.96532522751113 76.00959926467453 H 0.0 **** 0.06
10655 H 87.86862803947474 152.7535886594058 77.5744606211552 H 0.0 **** 0.06
10656 C 2.2161713136654626 25.42238762867055 58.04598037264792 C 0.0 **** -0.24
10657 H 1.9235981991835374 26.0388490815119 58.896467664781554 H 0.0 **** 0.06
10658 H 1.3367445528681827 24.920679693528257 57.641960460796284 H 0.0 **** 0.06
10659 H 2.9425296079751533 24.67670946976841 58.37054484452548 H 0.0 **** 0.06
10660 H 2.6612834562444547 26.05196493152374 57.27632854701784 H 0.0 **** 0.06
10661 C 123.55541619989414 63.620634196012645 149.33469564642425 C 0.0 **** -0.24
10662 H 123.85315001773903 62.62510099716155 149.66225870967742 H 0.0 **** 0.06
10663 H 124.4419916945243 64.19233946863727 149.05830395823347 H 0.0 **** 0.06
10664 H 123.03381790573361 64.12864143319572 150.14623938860456 H 0.0 **** 0.06
10665 H 122.89282983943257 63.53704574670435 148.4727776287031 H 0.0 **** 0.06
10666 C 145.10894892099455 131.95626195570338 28.411658267517282 C 0.0 **** -0.24
10667 H 144.6221003056423 131.07024744728312 28.81839167447049 H 0.0 **** 0.06
10668 H 145.6734359349501 131.68282697753148 27.519060296725968 H 0.0 **** 0.06
10669 H 145.78656594803783 132.37337185832752 29.156678307144205 H 0.0 **** 0.06
10670 H 144.35380448877302 132.69790014724128 28.15038244913967 H 0.0 **** 0.06
10671 C 178.0557320256271 6.8260144812917645 185.11403393450914 C 0.0 **** -0.24
10672 H 177.98833245577225 7.9140016899740715 185.08430985906966 H 0.0 **** 0.06
10673 H 178.22737313396868 6.444651162557108 184.10794214546297 H 0.0 **** 0.06
10674 H 177.12541448300493 6.414952545005377 185.50538889585272 H 0.0 **** 0.06
10675 H 178.8821033999505 6.531770162923067 185.76117379568058 H 0.0 **** 0.06
10676 C 22.353465756156837 47.23985537300561 95.7063120451456 C 0.0 **** -0.24
10677 H 23.04126011269875 46.750337820816114 95.01682103574676 H 0.0 **** 0.06
10678 H 22.920121086645594 47.845345834668834 96.4144443963621 H 0.0 **** 0.06
10679 H 21.784130748442877 46.4858227732187 96.24789934126882 H 0.0 **** 0.06
10680 H 21.671142426139397 47.87872180285231 95.14683024242704 H 0.0 **** 0.06
10681 C 134.26204928176998 115.34775640961361 97.1557923238286 C 0.0 **** -0.24
10682 H 135.04131414754653 115.89453616575376 97.68782762308969 H 0.0 **** 0.06
10683 H 134.53552663458737 114.29413123655648 97.09395777709598 H 0.0 **** 0.06
10684 H 134.1540168229214 115.75480851873733 96.15009259298158 H 0.0 **** 0.06
10685 H 133.3179987506005 115.44739105228244 97.69202633124705 H 0.0 **** 0.06
10686 C 23.73902595976253 110.93292921725777 172.47736354569906 C 0.0 **** -0.24
10687 H 23.46892239476108 111.94780020876573 172.18398951843682 H 0.0 **** 0.06
10688 H 22.869793548210396 110.28371249737734 172.38228474278128 H 0.0 **** 0.06
10689 H 24.081495864218766 110.93329113381822 173.51244064950657 H 0.0 **** 0.06
10690 H 24.538377537697727 110.56970022878039 171.83097191883024 H 0.0 **** 0.06
10691 C 124.52605857294851 172.3337491008062 83.90123903482272 C 0.0 **** -0.24
10692 H 124.32665325861534 171.2894001281187 83.65811942951706 H 0.0 **** 0.06
10693 H 125.2556276010446 172.7367625299649 83.1990997593169 H 0.0 **** 0.06
10694 H 124.9198889665822 172.40154790822947 84.91495116676279 H 0.0 **** 0.06
10695 H 123.60037160013538 172.90554205436462 83.83247987946092 H 0.0 **** 0.06
10696 C 63.05520067990378 66.21170207290446 27.69978752173813 C 0.0 **** -0.24
10697 H 63.58592966683085 67.16321641075322 27.745324274389134 H 0.0 **** 0.06
10698 H 62.5883421977812 66.1039442684253 26.721032311107138 H 0.0 **** 0.06
10699 H 62.28712661599687 66.18712376240109 28.473118960465627 H 0.0 **** 0.06
10700 H 63.75884058695442 65.39561269101006 27.860050845342244 H 0.0 **** 0.06
10701 C 104.99266353613075 52.67292532109792 181.2558089227805 C 0.0 **** -0.24
10702 H 104.17043147008843 52.0066990267095 181.51383077810377 H 0.0 **** 0.06
10703 H 105.73083804998373 52.1282512049454 180.66614470772896 H 0.0 **** 0.06
10704 H 105.4590930565264 53.04441429741075 182.16827525504783 H 0.0 **** 0.06
10705 H 104.61105155940129 53.51298669858113 180.67498833183433 H 0.0 **** 0.06
10706 C 143.74053246814583 54.20249879833955 21.437090663369048 C 0.0 **** -0.24
10707 H 143.9643843358785 53.88835904792677 20.41717304681137 H 0.0 **** 0.06
10708 H 144.46675449704037 53.76254624553468 22.120632674758554 H 0.0 **** 0.06
10709 H 142.73792193770072 53.869009783764454 21.706741531396915 H 0.0 **** 0.06
10710 H 143.79160839199614 55.28922589612233 21.501143906224286 H 0.0 **** 0.06
10711 C 172.73446867973652 43.311142841338835 167.71192531998128 C 0.0 **** -0.24
10712 H 173.65625754655312 43.37538075192117 168.2900197213654 H 0.0 **** 0.06
10713 H 172.3153832328447 44.310309845140864 167.58553269590013 H 0.0 **** 0.06
10714 H 172.01925008581577 42.68168225027239 168.24013839956126 H 0.0 **** 0.06
10715 H 172.94789776853082 42.87927169059549 166.73545533397726 H 0.0 **** 0.06
10716 C 116.01771764128542 154.6552323878442 172.69021542227193 C 0.0 **** -0.24
10717 H 116.14755792812097 153.89383312617068 173.46024208590845 H 0.0 **** 0.06
10718 H 116.11935496951465 155.64393906539945 173.1368520800107 H 0.0 **** 0.06
10719 H 115.02738609645901 154.55560088511055 172.2458097966123 H 0.0 **** 0.06
10720 H 116.77752595826 154.52410082891805 171.919029175722 H 0.0 **** 0.06
10721 C 142.49691352994637 17.72448401668825 121.44789027611803 C 0.0 **** -0.24
10722 H 141.45457510579985 18.043434899138674 121.43733980206484 H 0.0 **** 0.06
10723 H 143.10147585387043 18.474750072991554 121.95737197463096 H 0.0 **** 0.06
10724 H 142.85060946329926 17.605756262390713 120.42391700457792 H 0.0 **** 0.06
10725 H 142.57965166600673 16.772226555839097 121.97320116419199 H 0.0 **** 0.06
10726 C 75.75379619589569 128.15265359830727 58.48301602485792 C 0.0 **** -0.24
10727 H 75.38603026741725 127.53053803948654 57.667649363877345 H 0.0 **** 0.06
10728 H 75.58605599220857 129.20259992984393 58.2438941347509 H 0.0 **** 0.06
10729 H 76.82109401930478 127.9766873755741 58.62086606031747 H 0.0 **** 0.06
10730 H 75.22321617544891 127.8992980631972 59.40117406854445 H 0.0 **** 0.06
10731 C 34.77906602330319 141.75095653325377 145.34971707139803 C 0.0 **** -0.24
10732 H 35.29341529919691 141.94179363079877 146.2911210048379 H 0.0 **** 0.06
10733 H 34.86962620168805 140.69550312991794 145.09292857627673 H 0.0 **** 0.06
10734 H 35.226656262012625 142.35719097641874 144.56250291499518 H 0.0 **** 0.06
10735 H 33.72504228493443 142.01110477450123 145.45306234191412 H 0.0 **** 0.06
10736 C 21.631814538926648 177.8995723682886 149.10192570647558 C 0.0 **** -0.24
10737 H 21.750533859322957 178.95203790030064 148.8465742576056 H 0.0 **** 0.06
10738 H 21.064393578874814 177.8119594737945 150.02838768350347 H 0.0 **** 0.06
10739 H 22.614019608084362 177.4451465611267 149.23332494866835 H 0.0 **** 0.06
10740 H 21.099377201914535 177.38843386670368 148.3000134478777 H 0.0 **** 0.06
10741 C 167.35145489989384 78.4270990005771 38.57184416213197 C 0.0 **** -0.24
10742 H 166.6952918721153 78.76413608521538 37.76902197649626 H 0.0 **** 0.06
10743 H 168.05765571500257 77.69490957961294 38.179772185770844 H 0.0 **** 0.06
10744 H 166.75511129572575 77.97104956459329 39.36216345433634 H 0.0 **** 0.06
10745 H 167.89842027891828 79.28009419642738 38.97525768214885 H 0.0 **** 0.06
10746 C 39.00405639798208 48.525655386062596 161.4868374561497 C 0.0 **** -0.24
10747 H 38.54293043719153 49.34364341131959 162.03999005045347 H 0.0 **** 0.06
10748 H 38.78885967685363 47.58137474962703 161.98774746151452 H 0.0 **** 0.06
10749 H 40.083225982772035 48.67781746325795 161.447212929558 H 0.0 **** 0.06
10750 H 38.6034260100665 48.50043498224778 160.47403216518657 H 0.0 **** 0.06
10751 C 124.28057988955486 124.93625679534149 153.20317663443083 C 0.0 **** -0.24
10752 H 124.72829080670944 124.82029563698778 154.19003645212734 H 0.0 **** 0.06
10753 H 124.6627796490797 125.84309532852832 152.73466454528716 H 0.0 **** 0.06
10754 H 123.19728310193365 125.00587513962414 153.3026589121202 H 0.0 **** 0.06
10755 H 124.53348424885844 124.0736913296585 152.58604246443434 H 0.0 **** 0.06
10756 C 147.9207110542797 82.85027528188073 55.82217471806996 C 0.0 **** -0.24
10757 H 148.2528746151453 83.35002585087989 54.91229170493824 H 0.0 **** 0.06
10758 H 146.9322479218842 82.42057818419522 55.66039895464546 H 0.0 **** 0.06
10759 H 147.87468987812554 83.57214909291571 56.636530029530505 H 0.0 **** 0.06
10760 H 148.62383011216193 82.05713438917371 56.078534824871994 H 0.0 **** 0.06
10761 C 46.87238789780274 28.99201163480849 21.597297384543367 C 0.0 **** -0.24
10762 H 45.898036051584384 29.463088449113528 21.46678882891848 H 0.0 **** 0.06
10763 H 46.77348165237355 28.1305523709716 22.257788758906088 H 0.0 **** 0.06
10764 H 47.56697729764129 29.70833199257207 22.03536251474111 H 0.0 **** 0.06
10765 H 47.25126954249026 28.666131457800688 20.6282740675274 H 0.0 **** 0.06
10766 C 149.88676203184974 122.15818145675007 23.598279700613574 C 0.0 **** -0.24
10767 H 149.91750821822495 123.02413713953331 22.93677701859204 H 0.0 **** 0.06
10768 H 149.00139841323977 122.21772768343925 24.232643882859577 H 0.0 **** 0.06
10769 H 150.78079931064184 122.14642260003467 24.221854428450456 H 0.0 **** 0.06
10770 H 149.8470001662538 121.24758206958404 23.001868707060794 H 0.0 **** 0.06
10771 C 175.4175086209247 74.5328675200116 24.84128511971636 C 0.0 **** -0.24
10772 H 176.04910614554507 75.31940637263081 24.428351029663816 H 0.0 **** 0.06
10773 H 175.90648905734395 74.0925021176617 25.71061061943334 H 0.0 **** 0.06
10774 H 175.25706968009 73.76284323163397 24.08578175212628 H 0.0 **** 0.06
10775 H 174.45823927963653 74.95577348532603 25.138566504627647 H 0.0 **** 0.06
10776 C 63.6476885905833 23.43924948665213 106.09336207214902 C 0.0 **** -0.24
10777 H 63.37678292563736 23.194903555461394 107.12106610479042 H 0.0 **** 0.06
10778 H 64.14429917339436 22.583036807008057 105.63535642391359 H 0.0 **** 0.06
10779 H 64.3230058306211 24.29576702689002 106.08993702097628 H 0.0 **** 0.06
10780 H 62.74871895757573 23.683511672356616 105.52926554209908 H 0.0 **** 0.06
10781 C 125.10880844740636 163.58200920690138 96.31014879336702 C 0.0 **** -0.24
10782 H 125.00429316870505 164.40014200373537 95.59681179621622 H 0.0 **** 0.06
10783 H 124.94259062337319 163.95719085989404 97.32032142398587 H 0.0 **** 0.06
10784 H 126.11276685295213 163.16281368890216 96.23783682872887 H 0.0 **** 0.06
10785 H 124.3746646150585 162.8083509730865 96.08465347117185 H 0.0 **** 0.06
10786 C 159.47106620153582 170.62636753843628 20.16347015979545 C 0.0 **** -0.24
10787 H 159.97447810916435 170.7327427965692 19.203122778970453 H 0.0 **** 0.06
10788 H 160.16403751556834 170.20552428412162 20.891830008794955 H 0.0 **** 0.06
10789 H 158.61249312555483 169.96328616760186 20.052511799866096 H 0.0 **** 0.06
10790 H 159.13229836010692 171.60418188723548 20.506303676186008 H 0.0 **** 0.06
10791 C 113.5924476317223 108.9795761639033 79.93225853569888 C 0.0 **** -0.24
10792 H 113.8124433351493 107.99539895445353 79.52014272313848 H 0.0 **** 0.06
10793 H 113.0874867656181 108.86672106687827 80.89189889910743 H 0.0 **** 0.06
10794 H 112.94806461069608 109.52583959548359 79.24444525100247 H 0.0 **** 0.06
10795 H 114.52268006645538 109.52997809140165 80.0743032731307 H 0.0 **** 0.06
10796 C 79.5756927449554 144.92420880481166 16.049244388432342 C 0.0 **** -0.24
10797 H 80.52454926079895 144.81154851523695 15.52478053433498 H 0.0 **** 0.06
10798 H 79.68011303168504 145.67889228246804 16.8293396631721 H 0.0 **** 0.06
10799 H 79.29311887341419 143.97228698917226 16.49761945585803 H 0.0 **** 0.06
10800 H 78.80598920203698 145.23550674646629 15.342401808807033 H 0.0 **** 0.06
10801 C 46.041842168741425 122.99729743001184 81.14243635085472 C 0.0 **** -0.24
10802 H 47.07844113080682 123.18276017184856 81.42346752665011 H 0.0 **** 0.06
10803 H 45.502958140742294 123.94386844456373 81.09611472757926 H 0.0 **** 0.06
10804 H 45.574133097756174 122.34853552440616 81.8836782831736 H 0.0 **** 0.06
10805 H 46.010839213694396 122.51359428079418 80.1655794165686 H 0.0 **** 0.06
10806 C 80.62029853485765 167.97441484439543 136.98024915146937 C 0.0 **** -0.24
10807 H 80.48584522631457 167.78263183986041 135.915594767982 H 0.0 **** 0.06
10808 H 79.64665464239454 168.10414256698292 137.45216931156835 H 0.0 **** 0.06
10809 H 81.2125615910671 168.88005874830122 137.11338055020934 H 0.0 **** 0.06
10810 H 81.13702115843229 167.1318518588974 137.43945357337884 H 0.0 **** 0.06
10811 C 33.6162935128703 92.1028775283342 100.10400166630238 C 0.0 **** -0.24
10812 H 34.6274658741786 92.29370113540682 100.46359055940259 H 0.0 **** 0.06
10813 H 33.482393817606294 91.03331029292264 99.94462116537933 H 0.0 **** 0.06
10814 H 33.458814085719695 92.63399323189105 99.16476701724166 H 0.0 **** 0.06
10815 H 32.895319289003055 92.45326230499018 100.84310048126339 H 0.0 **** 0.06
10816 C 116.64999033434667 174.9959632682211 183.19109608308693 C 0.0 **** -0.24
10817 H 116.47348528128593 174.5039503049474 184.14772170468348 H 0.0 **** 0.06
10818 H 115.82149698890574 175.6710675426776 182.97174382693487 H 0.0 **** 0.06
10819 H 116.7243528171549 174.24462535616564 182.40529400114875 H 0.0 **** 0.06
10820 H 117.57850646431625 175.56468279719337 183.24075749362055 H 0.0 **** 0.06
10821 C 155.5493778337515 157.41309281355487 70.88261379861589 C 0.0 **** -0.24
10822 H 154.86754542302612 156.77542573218793 70.31942321365773 H 0.0 **** 0.06
10823 H 156.0846527139269 156.8117155200851 71.61761279458321 H 0.0 **** 0.06
10824 H 154.980763988693 158.1909498706297 71.3930205745012 H 0.0 **** 0.06
10825 H 156.2625380388933 157.87302749800463 70.19977712042612 H 0.0 **** 0.06
10826 C 64.71620645358476 4.151091226298945 52.30865716092606 C 0.0 **** -0.24
10827 H 64.18620539812125 3.721200840904089 53.157602070365925 H 0.0 **** 0.06
10828 H 64.55520040613685 5.2289571651073175 52.286443728815385 H 0.0 **** 0.06
10829 H 64.34233256858617 3.708215245654742 51.385334056256454 H 0.0 **** 0.06
10830 H 65.78233928379275 3.945115303477735 52.404433327910226 H 0.0 **** 0.06
10831 C 98.47620745597595 118.47891462764379 157.39482281044897 C 0.0 **** -0.24
10832 H 97.98944150859006 117.85246589750612 156.64779319413816 H 0.0 **** 0.06
10833 H 98.02446271210738 118.3001783974298 158.3704305199837 H 0.0 **** 0.06
10834 H 98.3552779873416 119.52752333357147 157.12446344066882 H 0.0 **** 0.06
10835 H 99.53846776249554 118.235151436686 157.43563880349797 H 0.0 **** 0.06
10836 C 129.4345568072447 143.53454322543368 55.793499740605796 C 0.0 **** -0.24
10837 H 128.83029426086745 143.08944090895875 56.58380035383729 H 0.0 **** 0.06
10838 H 129.04731532230244 144.52522446075727 55.55384560698215 H 0.0 **** 0.06
10839 H 129.3922284819251 142.90335625168348 54.90575783862917 H 0.0 **** 0.06
10840 H 130.46755300578246 143.61901074839506 56.13058644784962 H 0.0 **** 0.06
10841 C 97.95855020699996 99.47776527317473 167.5173976548684 C 0.0 **** -0.24
10842 H 99.02674501980907 99.59600562214263 167.69894220023892 H 0.0 **** 0.06
10843 H 97.40579379886388 100.20086251965336 168.11660302255459 H 0.0 **** 0.06
10844 H 97.65274932036631 98.46784265505585 167.7918962956669 H 0.0 **** 0.06
10845 H 97.75017631755743 99.64635148649552 166.46030427990377 H 0.0 **** 0.06
10846 C 123.73085572880359 77.7986549984836 29.985815020783946 C 0.0 **** -0.24
10847 H 122.96389234607324 77.0242580895931 29.99892837689913 H 0.0 **** 0.06
10848 H 124.62848704999737 77.42962373036917 30.48392479329266 H 0.0 **** 0.06
10849 H 123.3635317938917 78.68300157197798 30.50638742235384 H 0.0 **** 0.06
10850 H 123.96804915276664 78.05680016685085 28.95310608470072 H 0.0 **** 0.06
10851 C 100.54154724882405 48.53102292738126 125.89411159090788 C 0.0 **** -0.24
10852 H 100.5486707316576 47.46953357985531 125.64588590263445 H 0.0 **** 0.06
10853 H 99.75497580380578 49.03108656737234 125.3283580233656 H 0.0 **** 0.06
10854 H 101.50735387994449 48.96880702880584 125.6408844075374 H 0.0 **** 0.06
10855 H 100.35589916385409 48.65311530060228 126.96162628652517 H 0.0 **** 0.06
10856 C 167.11040618052573 41.575390912274884 87.35327538157928 C 0.0 **** -0.24
10857 H 167.18924871776753 42.65157813659502 87.20137982513604 H 0.0 **** 0.06
10858 H 167.3084027002998 41.05986187260845 86.41397589273724 H 0.0 **** 0.06
10859 H 166.1056203641627 41.33003358982154 87.69798921019041 H 0.0 **** 0.06
10860 H 167.83760257604573 41.259921307286106 88.10208224403213 H 0.0 **** 0.06
10861 C 176.64936436269292 117.7865466610167 100.93338399232005 C 0.0 **** -0.24
10862 H 175.81119323889808 117.6383311720748 101.61301967216127 H 0.0 **** 0.06
10863 H 176.31749899284733 118.36099424799801 100.06818706452208 H 0.0 **** 0.06
10864 H 177.02595516783802 116.81773196094161 100.60348577449389 H 0.0 **** 0.06
10865 H 177.44307241821917 118.32964288099959 101.44721022992206 H 0.0 **** 0.06
10866 C 29.069288838339332 7.080439583107591 10.442911624481383 C 0.0 **** -0.24
10867 H 28.34685527721831 7.687179757199857 10.989331322965356 H 0.0 **** 0.06
10868 H 29.91035818946358 6.843859912315622 11.094543243154071 H 0.0 **** 0.06
10869 H 29.426596508055866 7.635995416538094 9.57572518905063 H 0.0 **** 0.06
10870 H 28.592271233487168 6.157910040269428 10.113347080486328 H 0.0 **** 0.06
10871 C 22.103029381186772 72.35148508118824 125.38611000818094 C 0.0 **** -0.24
10872 H 22.92735447623275 71.86849598708648 124.85985239417869 H 0.0 **** 0.06
10873 H 21.64804459137062 73.10027098359156 124.73660103019103 H 0.0 **** 0.06
10874 H 22.48138555302843 72.83357935024763 126.28825751231676 H 0.0 **** 0.06
10875 H 21.358854669386147 71.60396009362371 125.65761638029807 H 0.0 **** 0.06
10876 C 24.544920004199653 16.499034611494352 9.958897969355746 C 0.0 **** -0.24
10877 H 23.79655839567458 15.728315149311754 9.7758986172027 H 0.0 **** 0.06
10878 H 24.555293017013597 17.200701449577423 9.124155829383113 H 0.0 **** 0.06
10879 H 25.52637436923507 16.035471744695855 10.05770665452269 H 0.0 **** 0.06
10880 H 24.301022840478666 17.03081252872954 10.878166028381997 H 0.0 **** 0.06
10881 C 99.20552432589425 72.2605128085195 58.48409244920411 C 0.0 **** -0.24
10882 H 100.13091911545031 72.35922915538322 57.91619550253546 H 0.0 **** 0.06
10883 H 99.41423232465054 71.77050127403206 59.43554662631533 H 0.0 **** 0.06
10884 H 98.49292986473147 71.66213854982789 57.91572569877955 H 0.0 **** 0.06
10885 H 98.78458379195472 73.24885733689432 58.66794161640408 H 0.0 **** 0.06
10886 C 69.32466824337926 88.28451483672762 107.30677079801826 C 0.0 **** -0.24
10887 H 68.4607500897025 88.90302989709369 107.55186451259762 H 0.0 **** 0.06
10888 H 69.69464954886085 87.80290117021474 108.21182906671719 H 0.0 **** 0.06
10889 H 70.10887073313921 88.91108452042494 106.88150587183445 H 0.0 **** 0.06
10890 H 69.03322827713083 87.52389183787437 106.58259764317329 H 0.0 **** 0.06
10891 C 115.09057978730208 167.98708725720212 121.55535988391215 C 0.0 **** -0.24
10892 H 114.1440612725345 168.46926962786648 121.31107884686197 H 0.0 **** 0.06
10893 H 115.91069634283163 168.55179323517973 121.11216765463136 H 0.0 **** 0.06
10894 H 115.09397515406683 166.97055366831003 121.16181916119861 H 0.0 **** 0.06
10895 H 115.21350701000743 167.95751544268398 122.63869353790962 H 0.0 **** 0.06
10896 C 29.546213458369834 113.4598497221079 93.66397679227224 C 0.0 **** -0.24
10897 H 29.702288987910023 114.02938855220115 92.74852920742536 H 0.0 **** 0.06
10898 H 30.503228780771522 113.30543919585709 94.16261336499112 H 0.0 **** 0.06
10899 H 29.102157068508774 112.49506588238349 93.42041897781225 H 0.0 **** 0.06
10900 H 28.877086620754255 114.01066551473214 94.32514893727931 H 0.0 **** 0.06
10901 C 43.592445044242936 155.3676980780609 162.862694041596 C 0.0 **** -0.24
10902 H 44.319441563640424 154.71673251447092 162.3781166647552 H 0.0 **** 0.06
10903 H 42.6165357934093 154.882514525373 162.86811722060474 H 0.0 **** 0.06
10904 H 43.5276577236329 156.30951555691666 162.3172576859464 H 0.0 **** 0.06
10905 H 43.907682956680105 155.56337267193442 163.88863796187135 H 0.0 **** 0.06
10906 C 17.65698801599129 144.19267413678764 82.35818429778111 C 0.0 **** -0.24
10907 H 17.61675431279849 145.08669258815632 82.98159480155324 H 0.0 **** 0.06
10908 H 17.104057114563687 143.38701662101818 82.84285922894426 H 0.0 **** 0.06
10909 H 18.696142734966827 143.89091117627441 82.22271482734679 H 0.0 **** 0.06
10910 H 17.210820561401192 144.4072423485834 81.38771512318316 H 0.0 **** 0.06
10911 C 22.47632280050476 43.60755319390489 124.21719281695344 C 0.0 **** -0.24
10912 H 21.72478508918691 44.2290223217301 123.72900987396507 H 0.0 **** 0.06
10913 H 23.280171312520366 43.389679375622336 123.51286762776031 H 0.0 **** 0.06
10914 H 22.01824834124227 42.6742484635343 124.54523159984423 H 0.0 **** 0.06
10915 H 22.881117207124504 44.136941793712225 125.07943556056945 H 0.0 **** 0.06
10916 C 164.3308282352284 184.53819141825048 82.40050431042448 C 0.0 **** -0.24
10917 H 165.2255077329478 185.11648208644365 82.17007024299272 H 0.0 **** 0.06
10918 H 163.7818718154631 184.33652810021294 81.48002283403969 H 0.0 **** 0.06
10919 H 163.69836370724894 185.10379920445268 83.08420292684787 H 0.0 **** 0.06
10920 H 164.61782349010798 183.59536887866358 82.86646005187913 H 0.0 **** 0.06
10921 C 83.24575383527639 181.6467613220511 109.67156978166508 C 0.0 **** -0.24
10922 H 82.67749790757722 182.17784575052784 108.90781465188462 H 0.0 **** 0.06
10923 H 82.7873109079203 180.67475476402214 109.85541948433212 H 0.0 **** 0.06
10924 H 83.24775702247484 182.22854290281484 110.59278990654536 H 0.0 **** 0.06
10925 H 84.27171140613916 181.50641907967668 109.32848301747782 H 0.0 **** 0.06
10926 C 103.3450380028753 181.40085644443658 115.81847902996076 C 0.0 **** -0.24
10927 H 103.44380126186257 182.24016725330154 116.50724209525403 H 0.0 **** 0.06
10928 H 103.78784834110382 181.6644866205956 114.8581678877661 H 0.0 **** 0.06
10929 H 102.28845543688311 181.16790551209635 115.6794878313509 H 0.0 **** 0.06
10930 H 103.85806679320535 180.53111362879358 116.22915196932699 H 0.0 **** 0.06
10931 C 7.098557427347949 174.86927619049337 162.80509654854094 C 0.0 **** -0.24
10932 H 7.45519505284863 175.45547475660925 161.95942512539798 H 0.0 **** 0.06
10933 H 6.453956567339773 174.06654994378783 162.4459368536128 H 0.0 **** 0.06
10934 H 6.535209560338004 175.51194012685764 163.48147558652857 H 0.0 **** 0.06
10935 H 7.950176030219296 174.44203740871495 163.33571427578372 H 0.0 **** 0.06
10936 C 21.849781630284554 2.0825624893411145 172.3406048165392 C 0.0 **** -0.24
10937 H 22.04491912812574 3.151657542781521 172.42123652918656 H 0.0 **** 0.06
10938 H 21.679986642924092 1.8228553149877484 171.29521291189496 H 0.0 **** 0.06
10939 H 20.965532341767585 1.830273415458862 172.9264962739001 H 0.0 **** 0.06
10940 H 22.707625072293126 1.5276693030213835 172.71954218146266 H 0.0 **** 0.06
10941 C 45.772830483871175 60.43219952884269 62.945987976245206 C 0.0 **** -0.24
10942 H 44.84933998175502 59.99374166940956 63.32569627191822 H 0.0 **** 0.06
10943 H 45.99983656931002 61.34053396027696 63.50560588377023 H 0.0 **** 0.06
10944 H 45.65240067609149 60.67520858043656 61.89033196119564 H 0.0 **** 0.06
10945 H 46.588315310965584 59.71856541178545 63.06386591738443 H 0.0 **** 0.06
10946 C 77.8454925693008 163.18443674773923 62.423326818297994 C 0.0 **** -0.24
10947 H 77.00561843816911 163.78526559670556 62.77174537887163 H 0.0 **** 0.06
10948 H 78.32504580265118 162.70307166020717 63.2761132701912 H 0.0 **** 0.06
10949 H 78.56552727996075 163.8269505156088 61.916066087746955 H 0.0 **** 0.06
10950 H 77.48506780376653 162.42450108128457 61.73053383595935 H 0.0 **** 0.06
10951 C 107.2720997304051 34.23795448343358 30.34401405867017 C 0.0 **** -0.24
10952 H 107.26194950600905 34.926468887160894 29.49880919444253 H 0.0 **** 0.06
10953 H 106.27109762527851 34.17467090153505 30.772244567720946 H 0.0 **** 0.06
10954 H 107.96901106251858 34.60174277014168 31.099779278954117 H 0.0 **** 0.06
10955 H 107.58630800976226 33.25188632974928 30.00468373325728 H 0.0 **** 0.06
10956 C 135.1826351942163 52.93797674530413 173.62377987441238 C 0.0 **** -0.24
10957 H 135.90423551854752 52.94364525556783 174.44010834944453 H 0.0 **** 0.06
10958 H 134.91683530313725 51.909229496510164 173.3802785741891 H 0.0 **** 0.06
10959 H 135.6193522919047 53.41802845712961 172.7482509574721 H 0.0 **** 0.06
10960 H 134.28762897659863 53.48260212227248 173.92698355029756 H 0.0 **** 0.06
10961 C 53.071128454998316 68.90481672223166 149.73507532711565 C 0.0 **** -0.24
10962 H 53.51837851108358 69.59081385236061 150.45458814387342 H 0.0 **** 0.06
10963 H 52.277833881078024 68.33622298363707 150.22000752293604 H 0.0 **** 0.06
10964 H 53.83388519813694 68.22025492872854 149.3633191195974 H 0.0 **** 0.06
10965 H 52.65610815428414 69.47232182942037 148.90225514161685 H 0.0 **** 0.06
10966 C 9.73564938552255 76.02932446717244 15.162062304265248 C 0.0 **** -0.24
10967 H 8.732912528401584 76.2628324662574 14.804423983794607 H 0.0 **** 0.06
10968 H 9.668183484467932 75.50554020488619 16.115272536795317 H 0.0 **** 0.06
10969 H 10.299178333811938 76.95238241345953 15.292478862136022 H 0.0 **** 0.06
10970 H 10.240881741807243 75.39464846553312 14.433764280135904 H 0.0 **** 0.06
10971 C 94.18052184400881 180.75736710830336 79.26025645147422 C 0.0 **** -0.24
10972 H 93.23770770332055 180.97832536837632 78.75939986679305 H 0.0 **** 0.06
10973 H 94.6166519319367 181.68270344687437 79.63604037805624 H 0.0 **** 0.06
10974 H 94.86692196716837 180.29166593980733 78.55353823303602 H 0.0 **** 0.06
10975 H 93.99843040825414 180.07686304752906 80.09263876763941 H 0.0 **** 0.06
10976 C 177.32374811963265 92.44902710596614 52.762328515735135 C 0.0 **** -0.24
10977 H 177.1800168216765 93.05307726304409 51.86711957024545 H 0.0 **** 0.06
10978 H 176.3538607524456 92.12690201446355 53.14191947232786 H 0.0 **** 0.06
10979 H 177.8329570355019 93.04220771926265 53.522593883476475 H 0.0 **** 0.06
10980 H 177.9272971942756 91.57507454761566 52.51939276647039 H 0.0 **** 0.06
10981 C 165.79774093809695 111.42031247866102 151.95107387603483 C 0.0 **** -0.24
10982 H 165.30310290086175 111.6990679342775 151.0203736111913 H 0.0 **** 0.06
10983 H 166.1504716266227 112.31941264205686 152.45737847460862 H 0.0 **** 0.06
10984 H 166.64388624151314 110.77026498646826 151.73248132757368 H 0.0 **** 0.06
10985 H 165.0911594833473 110.89502999500174 152.59370232590388 H 0.0 **** 0.06
10986 C 60.61662367505828 104.6571920354556 29.696175389200846 C 0.0 **** -0.24
10987 H 60.67503429388303 103.6554772289072 30.121671574807465 H 0.0 **** 0.06
10988 H 60.317744032315574 105.3634951230937 30.470974899259232 H 0.0 **** 0.06
10989 H 59.881681369928316 104.66868342346653 28.891518872099255 H 0.0 **** 0.06
10990 H 61.59225956772576 104.94096553780848 29.301924757355835 H 0.0 **** 0.06
10991 C 42.178283202265845 20.554992711249653 171.32557739606986 C 0.0 **** -0.24
10992 H 42.82592203227682 20.64029464395321 172.1980720297695 H 0.0 **** 0.06
10993 H 41.241511825289905 20.077386775793755 171.61308796294767 H 0.0 **** 0.06
10994 H 42.67392345267817 19.953725172383237 170.56335796995947 H 0.0 **** 0.06
10995 H 41.97259506579735 21.548413028617702 170.9266490409171 H 0.0 **** 0.06
10996 C 166.93412632468693 80.94492929704073 101.76819252566118 C 0.0 **** -0.24
10997 H 167.8092372795538 81.18891894512461 102.37029569455616 H 0.0 **** 0.06
10998 H 167.22596206387638 80.27728228082003 100.9572376947303 H 0.0 **** 0.06
10999 H 166.51449301248593 81.86094597769473 101.35229267173519 H 0.0 **** 0.06
11000 H 166.18897100892482 80.45459361775501 102.3934419188336 H 0.0 **** 0.06
11001 C 69.94636618692414 110.59489900302867 131.49420817422782 C 0.0 **** -0.24
11002 H 68.87219536384208 110.42094005262885 131.4420482462778 H 0.0 **** 0.06
11003 H 70.29324372583464 110.4197239001723 132.51332988288738 H 0.0 **** 0.06
11004 H 70.16164871524428 111.62433115286314 131.208751992352 H 0.0 **** 0.06
11005 H 70.45875648954166 109.91436866581847 130.81359813848866 H 0.0 **** 0.06
11006 C 136.70387808352876 21.176464133035466 32.408113294676625 C 0.0 **** -0.24
11007 H 136.58853828028657 22.226983175522207 32.676875010140876 H 0.0 **** 0.06
11008 H 137.03148890586897 20.612438985964047 33.28183874597633 H 0.0 **** 0.06
11009 H 137.44678181672435 21.085239289498617 31.616058737587664 H 0.0 **** 0.06
11010 H 135.74897393412533 20.78464485371461 32.058693682865325 H 0.0 **** 0.06
11011 C 81.45617808123214 92.72718910013754 125.71300938253398 C 0.0 **** -0.24
11012 H 81.92718163668597 92.02822879433518 125.02048822676784 H 0.0 **** 0.06
11013 H 80.42272490016401 92.89628500438369 125.4114609663643 H 0.0 **** 0.06
11014 H 81.99928506767556 93.67186397466082 125.69913376533606 H 0.0 **** 0.06
11015 H 81.47862963355973 92.31005529133665 126.7195627420291 H 0.0 **** 0.06
11016 C 99.82502627222044 105.79300113525558 30.90524295094764 C 0.0 **** -0.24
11017 H 100.53568313950922 106.61752437623618 30.968738030162 H 0.0 **** 0.06
11018 H 98.92593862258599 106.12877659891966 30.38705125169784 H 0.0 **** 0.06
11019 H 99.5639173663161 105.4609724339431 31.90992620289842 H 0.0 **** 0.06
11020 H 100.27560767029024 104.96789838139198 30.354316282844252 H 0.0 **** 0.06
11021 C 48.242503011034785 92.96286608258892 45.65697831252322 C 0.0 **** -0.24
11022 H 48.36649760374013 93.22123988908147 46.708748575702 H 0.0 **** 0.06
11023 H 48.90996462636602 93.57607502843204 45.05167166323076 H 0.0 **** 0.06
11024 H 47.20962798198829 93.1452043238235 45.35858875439959 H 0.0 **** 0.06
11025 H 48.4816814369683 91.90982464972932 45.51069512953438 H 0.0 **** 0.06
11026 C 179.1051790338813 89.6776655356307 122.0293568280325 C 0.0 **** -0.24
11027 H 179.114369788929 88.8478598691184 122.73606854372726 H 0.0 **** 0.06
11028 H 179.87384661039152 90.39874725269857 122.30657635550732 H 0.0 **** 0.06
11029 H 178.12880152064034 90.16084857505535 122.04847335498151 H 0.0 **** 0.06
11030 H 179.3051716775255 89.30060244176332 121.02608929431567 H 0.0 **** 0.06
11031 C 139.2981409824509 90.6308054343192 103.20804300046797 C 0.0 **** -0.24
11032 H 138.4613571968099 90.32824305636296 103.83778443333944 H 0.0 **** 0.06
11033 H 140.12804589972444 90.95242894208809 103.837956115363 H 0.0 **** 0.06
11034 H 138.9889670712604 91.45347743437429 102.56363581186241 H 0.0 **** 0.06
11035 H 139.61351595865807 89.7872657470005 102.59430464133487 H 0.0 **** 0.06
11036 C 104.01911715722953 174.44398502561594 96.28437260672325 C 0.0 **** -0.24
11037 H 104.61208530707167 175.16720609261074 95.72415708157354 H 0.0 **** 0.06
11038 H 103.52722253235869 173.7624490904087 95.59026972282368 H 0.0 **** 0.06
11039 H 103.26624343736636 174.96916167615876 96.87247210551868 H 0.0 **** 0.06
11040 H 104.67030290287154 173.8784812946706 96.94970934766201 H 0.0 **** 0.06
11041 C 168.18837678091552 128.0719162733448 137.95007593453522 C 0.0 **** -0.24
11042 H 168.95093382037282 128.79736639469633 137.66457238740531 H 0.0 **** 0.06
11043 H 168.41286671103245 127.6809698351263 138.9423543786965 H 0.0 **** 0.06
11044 H 168.17895297274805 127.25303698484994 137.22942115398524 H 0.0 **** 0.06
11045 H 167.21194274118292 128.55693429878028 137.96109687887235 H 0.0 **** 0.06
11046 C 176.12336478444703 105.74579485927052 91.81986856969387 C 0.0 **** -0.24
11047 H 176.448416691192 104.73255255569097 92.05707242147788 H 0.0 **** 0.06
11048 H 176.99078337288532 106.40241509840314 91.76331607964916 H 0.0 **** 0.06
11049 H 175.44769172129722 106.10143130510983 92.59819884074118 H 0.0 **** 0.06
11050 H 175.60341553249805 105.7449436613498 90.86171909210391 H 0.0 **** 0.06
11051 C 47.1061184839145 111.13311238356185 63.30409089185642 C 0.0 **** -0.24
11052 H 47.629373426829176 111.03418027462133 64.25518503402813 H 0.0 **** 0.06
11053 H 47.71700582770045 111.71589802087784 62.6130569035971 H 0.0 **** 0.06
11054 H 46.15491621654472 111.64077245107337 63.465115342841955 H 0.0 **** 0.06
11055 H 46.92442716794727 110.14478885263658 62.884511136273005 H 0.0 **** 0.06
11056 C 38.071785204444296 176.12400370987314 126.49140191188069 C 0.0 **** -0.24
11057 H 37.864822461398774 176.44869346053505 127.51080876679559 H 0.0 **** 0.06
11058 H 39.09028417343188 175.73941083239157 126.43075084053517 H 0.0 **** 0.06
11059 H 37.960741710691934 176.96799476499166 125.81126826095065 H 0.0 **** 0.06
11060 H 37.369392755431875 175.33770060194996 126.21156145975301 H 0.0 **** 0.06
11061 C 54.21887599982483 89.90444136093657 136.23091131309832 C 0.0 **** -0.24
11062 H 54.6242784624871 88.97404729479655 136.6269795614399 H 0.0 **** 0.06
11063 H 54.69420926369975 90.75010019424548 136.73074914552802 H 0.0 **** 0.06
11064 H 53.14360758636104 89.9368045581939 136.40646992128723 H 0.0 **** 0.06
11065 H 54.41370681762419 89.95914830212735 135.16012447517846 H 0.0 **** 0.06
11066 C 90.5320997164792 48.79309158573088 15.040483246784277 C 0.0 **** -0.24
11067 H 89.95474644980857 48.723408745505935 15.962866514329136 H 0.0 **** 0.06
11068 H 91.15770223515074 49.685194857324944 15.070609737844478 H 0.0 **** 0.06
11069 H 89.85215509191721 48.854572003862884 14.191044715886278 H 0.0 **** 0.06
11070 H 91.16214634834898 47.9097411942721 14.93881870797378 H 0.0 **** 0.06
11071 C 151.05655924293586 112.17950647197425 6.849019982281561 C 0.0 **** -0.24
11072 H 151.01897923142923 111.46799815250218 7.673676885316127 H 0.0 **** 0.06
11073 H 150.89437269343162 111.65447763817697 5.908331628347582 H 0.0 **** 0.06
11074 H 152.03405245956853 112.66298658156039 6.832515640484587 H 0.0 **** 0.06
11075 H 150.28070207853855 112.93297511581441 6.983638029907752 H 0.0 **** 0.06
11076 C 135.16050896465543 29.406819680339765 15.24546048139802 C 0.0 **** -0.24
11077 H 134.8642946275654 28.368870681061395 15.095960354155814 H 0.0 **** 0.06
11078 H 135.9924391623257 29.448793437771428 15.949269220086002 H 0.0 **** 0.06
11079 H 134.31788054182192 29.970588671800925 15.645646970652663 H 0.0 **** 0.06
11080 H 135.46777299445745 29.837726200058967 14.293011674676066 H 0.0 **** 0.06
11081 C 54.728953661118084 183.82540872422317 98.04769423684392 C 0.0 **** -0.24
11082 H 55.654268423699165 183.2583625043948 97.9507792524149 H 0.0 **** 0.06
11083 H 54.94469743004865 184.89148722500144 97.96798443694531 H 0.0 **** 0.06
11084 H 54.27510350024403 183.61800000236838 99.01672778367062 H 0.0 **** 0.06
11085 H 54.039641190271595 183.53406264249497 97.25458127820961 H 0.0 **** 0.06
11086 C 30.00734978254019 42.45573316341793 18.83976880447932 C 0.0 **** -0.24
11087 H 30.869945691359874 42.94840482467038 19.289956908750725 H 0.0 **** 0.06
11088 H 30.169926872062376 41.37820975736287 18.830055424831073 H 0.0 **** 0.06
11089 H 29.87714998539903 42.813536845377286 17.818647415806282 H 0.0 **** 0.06
11090 H 29.113751820115397 42.68391764023701 19.421763580230675 H 0.0 **** 0.06
11091 C 9.271708939156547 54.98669755274835 104.10966563769246 C 0.0 **** -0.24
11092 H 8.413307943934363 55.6414771896211 103.96440144089631 H 0.0 **** 0.06
11093 H 8.95573738936735 53.94768479676999 104.01617854533966 H 0.0 **** 0.06
11094 H 9.690811741852535 55.15219097795233 105.10201090137706 H 0.0 **** 0.06
11095 H 10.027226966383118 55.2057968643572 103.35517218863087 H 0.0 **** 0.06
11096 C 119.47214819175606 160.29736276675828 13.559447736062737 C 0.0 **** -0.24
11097 H 119.10183581461023 161.26905874940945 13.231027196808839 H 0.0 **** 0.06
11098 H 119.50826039216953 159.61667707845402 12.708052821379908 H 0.0 **** 0.06
11099 H 118.80547614793123 159.89319054447063 14.31997618206762 H 0.0 **** 0.06
11100 H 120.47298621251285 160.4114111036456 13.976048983902274 H 0.0 **** 0.06
11101 C 136.54296448055698 126.56600689555485 134.26200635442916 C 0.0 **** -0.24
11102 H 136.62887998883366 125.79336548948105 133.4980173855086 H 0.0 **** 0.06
11103 H 135.69475849870247 126.34202028710503 134.90920028535567 H 0.0 **** 0.06
11104 H 136.3908834661832 127.53318539664285 133.78382076950362 H 0.0 **** 0.06
11105 H 137.45658684048755 126.59297532154692 134.85585418874257 H 0.0 **** 0.06
11106 C 69.20914745274021 31.598929873056804 10.4574372518519 C 0.0 **** -0.24
11107 H 68.5289773265892 32.15418383999966 9.811212828110172 H 0.0 **** 0.06
11108 H 69.77782713237261 32.29603888632984 11.072055657347391 H 0.0 **** 0.06
11109 H 69.89317447693432 31.012472727569644 9.844290122850339 H 0.0 **** 0.06
11110 H 68.63404900998796 30.931044287891055 11.099637389955575 H 0.0 **** 0.06
11111 C 12.627338656440031 83.41197594887802 32.7955000792515 C 0.0 **** -0.24
11112 H 13.660652753126442 83.23247998974603 33.0951975647651 H 0.0 **** 0.06
11113 H 11.971649504799757 83.27992511112842 33.656670037840826 H 0.0 **** 0.06
11114 H 12.348626718506125 82.70648115373479 32.01286663480755 H 0.0 **** 0.06
11115 H 12.53122280673611 84.43007469569523 32.41702409485771 H 0.0 **** 0.06
11116 C 108.30086543124376 105.20762684940532 112.02982345786408 C 0.0 **** -0.24
11117 H 108.27521736555697 106.11258516652804 112.63675671703508 H 0.0 **** 0.06
11118 H 107.35405273871397 104.67706972957886 112.1294940432157 H 0.0 **** 0.06
11119 H 109.11467582839587 104.56696899639128 112.36797355871592 H 0.0 **** 0.06
11120 H 108.45890571415852 105.47616156064036 110.98573164238717 H 0.0 **** 0.06
11121 C 80.39725558348084 153.36641088993792 24.837916911656535 C 0.0 **** -0.24
11122 H 79.45306917253697 153.36211721173473 25.383032461483964 H 0.0 **** 0.06
11123 H 81.01825104737458 152.53891700824204 25.179379713481225 H 0.0 **** 0.06
11124 H 80.91543620090829 154.3085316373286 25.017501750917347 H 0.0 **** 0.06
11125 H 80.19953308271693 153.2575624807388 23.77118160305413 H 0.0 **** 0.06
11126 C 42.97772285287232 95.2424792277539 168.03496411833095 C 0.0 **** -0.24
11127 H 42.079385609287186 95.39978876381804 167.43860579273567 H 0.0 **** 0.06
11128 H 42.98558206797145 94.2217494889158 168.4175244419236 H 0.0 **** 0.06
11129 H 42.98790066724487 95.94442472283652 168.86946476239223 H 0.0 **** 0.06
11130 H 43.859201015938936 95.40473068755375 167.414357089325 H 0.0 **** 0.06
11131 C 7.079039040792992 176.86181393781465 100.80591624659196 C 0.0 **** -0.24
11132 H 8.008734881266804 177.0947694586228 101.32595831805521 H 0.0 **** 0.06
11133 H 6.473619823493721 177.7652242250877 100.72527001794411 H 0.0 **** 0.06
11134 H 6.530350072376905 176.10491625142186 101.36589897620406 H 0.0 **** 0.06
11135 H 7.304920371996218 176.48532583705568 99.80917623444886 H 0.0 **** 0.06
11136 C 141.29396114576804 115.53257949328002 3.936556973997085 C 0.0 **** -0.24
11137 H 141.21225743783663 116.30002168874171 4.706133051279522 H 0.0 **** 0.06
11138 H 140.30061142906203 115.1563594355041 3.6909451171331398 H 0.0 **** 0.06
11139 H 141.91135068543008 114.71340160377724 4.306047326762837 H 0.0 **** 0.06
11140 H 141.7525540583327 115.95967218346618 3.044649052428099 H 0.0 **** 0.06
11141 C 96.21206839688917 120.2314093727286 33.079941952746566 C 0.0 **** -0.24
11142 H 97.16241501461583 120.43066726534904 33.57473883162962 H 0.0 **** 0.06
11143 H 95.46127317977012 119.97342295815726 33.82719152830816 H 0.0 **** 0.06
11144 H 96.33288430916694 119.4023289752321 32.38293078678868 H 0.0 **** 0.06
11145 H 95.89295088689472 121.11985231561424 32.53509654960067 H 0.0 **** 0.06
11146 C 97.40163294227962 34.4155156413876 155.76178734455124 C 0.0 **** -0.24
11147 H 96.48990877515006 34.98654578665395 155.9352144530897 H 0.0 **** 0.06
11148 H 98.2109211046408 35.09631456839355 155.49561844405025 H 0.0 **** 0.06
11149 H 97.23850642199038 33.708805725064536 154.94751145746133 H 0.0 **** 0.06
11150 H 97.66752934327526 33.871135355317875 156.66821968363908 H 0.0 **** 0.06
11151 C 124.90411326405643 127.36522805767787 83.54643755706469 C 0.0 **** -0.24
11152 H 124.22518081985538 127.71188683297014 84.32587633362066 H 0.0 **** 0.06
11153 H 125.656475485822 126.70981396919059 83.9857618518108 H 0.0 **** 0.06
11154 H 125.39298839275654 128.22182879140496 83.08280554214751 H 0.0 **** 0.06
11155 H 124.33985718467017 126.81563091745774 82.79236697194463 H 0.0 **** 0.06
11156 C 25.291916114656317 11.396418603249096 95.51525475233183 C 0.0 **** -0.24
11157 H 26.327907096242825 11.512929528168499 95.1938728860178 H 0.0 **** 0.06
11158 H 25.269468065252454 11.122563428772487 96.57052477287738 H 0.0 **** 0.06
11159 H 24.8152647298364 10.613745824751355 94.92663509881459 H 0.0 **** 0.06
11160 H 24.759746233507144 12.336237916934678 95.37190130247444 H 0.0 **** 0.06
11161 C 75.56084734113529 178.3963260996331 96.89028945993078 C 0.0 **** -0.24
11162 H 75.32859685393163 177.72956566091588 96.06055542799157 H 0.0 **** 0.06
11163 H 74.65124311591137 178.60519701795852 97.45376391919757 H 0.0 **** 0.06
11164 H 75.97030909399007 179.3295396071696 96.5030246979644 H 0.0 **** 0.06
11165 H 76.29244734322617 177.9215140320837 97.54348336836824 H 0.0 **** 0.06
11166 C 97.0464493376005 117.77956085275639 22.596278009735613 C 0.0 **** -0.24
11167 H 96.90123003292291 116.7555104084638 22.25401002264681 H 0.0 **** 0.06
11168 H 96.76745653652733 117.85372198949688 23.647676850630035 H 0.0 **** 0.06
11169 H 96.42289391078668 118.45145300834628 22.006709593032554 H 0.0 **** 0.06
11170 H 98.09401173431604 118.05741671199178 22.477684066496863 H 0.0 **** 0.06
11171 C 31.84444718041965 180.5882436285025 69.81323547155367 C 0.0 **** -0.24
11172 H 31.29415125344042 180.77737250383683 68.89177683759897 H 0.0 **** 0.06
11173 H 32.07256469325773 181.53730864496097 70.3006422965899 H 0.0 **** 0.06
11174 H 32.77298879737097 180.06665812610765 69.58034407663271 H 0.0 **** 0.06
11175 H 31.23905002744482 179.97355989008568 70.47901136454931 H 0.0 **** 0.06
11176 C 51.165524857386856 66.87201255554731 20.559326419043487 C 0.0 **** -0.24
11177 H 50.093344350219354 67.06322730026 20.599924901468853 H 0.0 **** 0.06
11178 H 51.36749528208111 66.08901688822539 19.828419382779998 H 0.0 **** 0.06
11179 H 51.513861915727716 66.5514253293045 21.54119682261654 H 0.0 **** 0.06
11180 H 51.685687943209075 67.78493578934939 20.26942834211843 H 0.0 **** 0.06
11181 C 37.87632538976362 140.6679434751918 105.07624899710878 C 0.0 **** -0.24
11182 H 38.63075140798078 141.37101799448203 105.42866630076362 H 0.0 **** 0.06
11183 H 36.919668236025814 141.18258627741233 104.97580851784276 H 0.0 **** 0.06
11184 H 37.777688734217975 139.85281371453624 105.79187292191163 H 0.0 **** 0.06
11185 H 38.1769258034867 140.26750583870245 104.10750523310203 H 0.0 **** 0.06
11186 C 154.59958695234093 32.21853141049786 122.89235603057598 C 0.0 **** -0.24
11187 H 155.54369782467066 32.15113559093959 123.43356287138455 H 0.0 **** 0.06
11188 H 154.24591133467123 31.2152721387352 122.65340254254248 H 0.0 **** 0.06
11189 H 154.74767657415856 32.78157600960981 121.97177275620375 H 0.0 **** 0.06
11190 H 153.86137855369253 32.72571727800613 123.51438998803398 H 0.0 **** 0.06
11191 C 160.84818095287864 48.34240282700554 6.144394722453569 C 0.0 **** -0.24
11192 H 160.53956674344607 48.63233631946804 7.148947961981577 H 0.0 **** 0.06
11193 H 160.9227766734312 49.23080158038624 5.517277112690806 H 0.0 **** 0.06
11194 H 160.11209695070806 47.65895612420883 5.72183905293241 H 0.0 **** 0.06
11195 H 161.81890158375097 47.84726046676394 6.19164832066042 H 0.0 **** 0.06
11196 C 106.52922486980134 123.09638085498442 34.34830780345821 C 0.0 **** -0.24
11197 H 107.43219594661656 122.62501214464977 34.73643425022969 H 0.0 **** 0.06
11198 H 106.42051615227234 124.08950447569156 34.78478261923634 H 0.0 **** 0.06
11199 H 105.6622164093398 122.48850301310999 34.60685803302947 H 0.0 **** 0.06
11200 H 106.60208707085144 123.18145186144342 33.26345923344198 H 0.0 **** 0.06
11201 C 10.639063846417685 107.7505186756335 152.05424205541578 C 0.0 **** -0.24
11202 H 11.317914014251215 106.92239134313802 151.85465524816885 H 0.0 **** 0.06
11203 H 10.230281382494468 108.12151819146395 151.11418959513742 H 0.0 **** 0.06
11204 H 11.181817476847073 108.55243710376622 152.55649272907525 H 0.0 **** 0.06
11205 H 9.826626203507317 107.40693804435453 152.69415828187942 H 0.0 **** 0.06
11206 C 128.4782563708643 112.25981076841487 131.0276326972209 C 0.0 **** -0.24
11207 H 128.30333448919544 112.92247095614766 131.8751928269142 H 0.0 **** 0.06
11208 H 129.07461599773194 111.40597460008303 131.35017474323433 H 0.0 **** 0.06
11209 H 129.0124052555101 112.80198042262316 130.24758693624125 H 0.0 **** 0.06
11210 H 127.5229296310955 111.90912619696002 130.63666143949024 H 0.0 **** 0.06
11211 C 157.86339646758245 143.315188226808 71.55799574141469 C 0.0 **** -0.24
11212 H 157.6919391118323 142.39325423517818 71.002490161235 H 0.0 **** 0.06
11213 H 157.02361747460515 143.49567126633718 72.23014491780916 H 0.0 **** 0.06
11214 H 157.95550927108405 144.14755198294398 70.86017902042961 H 0.0 **** 0.06
11215 H 158.78105356690804 143.22347081245846 72.13871918539941 H 0.0 **** 0.06
11216 C 77.76211988034248 57.68467392188791 95.4599748785102 C 0.0 **** -0.24
11217 H 78.55426863495421 57.896008046842496 96.1774242297509 H 0.0 **** 0.06
11218 H 78.1895484812162 57.60490909531072 94.4605011547792 H 0.0 **** 0.06
11219 H 77.02961892365079 58.492069403158524 95.4791911761867 H 0.0 **** 0.06
11220 H 77.27504348154895 56.745709142239946 95.72278295332399 H 0.0 **** 0.06
11221 C 137.46952540842682 95.72970380138345 26.370054335072254 C 0.0 **** -0.24
11222 H 137.49130793828886 95.92436156775109 25.297696072198278 H 0.0 **** 0.06
11223 H 137.98872615940115 94.79411470273247 26.578917908330325 H 0.0 **** 0.06
11224 H 136.4339597900625 95.6539026533846 26.70349162963639 H 0.0 **** 0.06
11225 H 137.9629823149303 96.54535803400928 26.89718409304504 H 0.0 **** 0.06
11226 C 104.97755185496906 147.1255571863519 78.06071607254279 C 0.0 **** -0.24
11227 H 105.59760342081567 146.50615536224228 77.41247089886859 H 0.0 **** 0.06
11228 H 104.4015305531568 146.48629975434304 78.7299475452955 H 0.0 **** 0.06
11229 H 104.29764427396431 147.72121456152038 77.45201390931106 H 0.0 **** 0.06
11230 H 105.61442327369632 147.7865711147174 78.64867674232045 H 0.0 **** 0.06
11231 C 159.86479378326538 78.54152087537872 62.374220316663084 C 0.0 **** -0.24
11232 H 158.970052547947 77.95718464575292 62.15980564160286 H 0.0 **** 0.06
11233 H 160.73796800897253 77.88967728260968 62.351393594880875 H 0.0 **** 0.06
11234 H 159.77334330235587 78.99449233764518 63.361487773145086 H 0.0 **** 0.06
11235 H 159.97408259482737 79.32443322005274 61.62429261394004 H 0.0 **** 0.06
11236 C 142.32409845931357 59.280369500470385 169.5496941077041 C 0.0 **** -0.24
11237 H 141.86890903289162 59.05094900668712 168.58564368678913 H 0.0 **** 0.06
11238 H 143.39769834795368 59.09549763752864 169.49754939073625 H 0.0 **** 0.06
11239 H 141.88345009472778 58.646432571755724 170.31926110077836 H 0.0 **** 0.06
11240 H 142.14661536306954 60.32691610203932 169.79487627298616 H 0.0 **** 0.06
11241 C 8.552521445414015 127.1186368673243 50.81897405642036 C 0.0 **** -0.24
11242 H 8.323692172950643 126.05788932504932 50.719912658602766 H 0.0 **** 0.06
11243 H 9.596763879687927 127.29165710870261 50.55582175174624 H 0.0 **** 0.06
11244 H 8.3807105573012 127.43204973197187 51.849397655359326 H 0.0 **** 0.06
11245 H 7.909707175927366 127.6929328243183 50.152856725732164 H 0.0 **** 0.06
11246 C 25.637739903147448 73.43252154464747 62.576960384472955 C 0.0 **** -0.24
11247 H 25.48781628315173 72.76919803208736 61.72543928916119 H 0.0 **** 0.06
11248 H 25.209061965386866 72.97853322224707 63.470406069645236 H 0.0 **** 0.06
11249 H 25.149798954705062 74.38839224836738 62.38396241920978 H 0.0 **** 0.06
11250 H 26.705201089050107 73.59462587621725 62.72718744884838 H 0.0 **** 0.06
11251 C 180.91275522951207 119.80923011825688 29.5037865707217 C 0.0 **** -0.24
11252 H 180.7333191248948 118.74371133636247 29.351672020499976 H 0.0 **** 0.06
11253 H 181.51521328259398 119.95025738836212 30.401569387040723 H 0.0 **** 0.06
11254 H 179.95912960784642 120.32473019298045 29.619039413963947 H 0.0 **** 0.06
11255 H 181.4432486387306 120.21450715112137 28.642427980758796 H 0.0 **** 0.06
11256 C 14.370547706444484 28.711899087261344 135.55261967972598 C 0.0 **** -0.24
11257 H 13.502043732659644 28.840912875652066 136.19841504244556 H 0.0 **** 0.06
11258 H 15.27089963055397 28.653485590506136 136.16370119937756 H 0.0 **** 0.06
11259 H 14.446216484670849 29.560199744150793 134.872502344456 H 0.0 **** 0.06
11260 H 14.261427321804483 27.792256035623524 134.97679697251453 H 0.0 **** 0.06
11261 C 50.41636548437353 27.748161035309252 129.29729927745183 C 0.0 **** -0.24
11262 H 51.29772926964365 27.168034255615794 129.0209332142519 H 0.0 **** 0.06
11263 H 49.71151815207081 27.755899735216218 128.46592167803522 H 0.0 **** 0.06
11264 H 50.71394833087412 28.769713773777653 129.5318302801004 H 0.0 **** 0.06
11265 H 49.94560352786988 27.297398935178606 130.17106931410325 H 0.0 **** 0.06
11266 C 47.44838135572459 148.87725062587538 181.3903099859558 C 0.0 **** -0.24
11267 H 46.407447863565736 148.95705962714555 181.70452546109863 H 0.0 **** 0.06
11268 H 47.82251705790131 147.88022921179487 181.62643110100743 H 0.0 **** 0.06
11269 H 48.04416647296014 149.62311355957706 181.91539656346822 H 0.0 **** 0.06
11270 H 47.51783485513667 149.04742812082188 180.31636856719055 H 0.0 **** 0.06
11271 C 163.83509086070183 123.20697860540112 123.84256041688353 C 0.0 **** -0.24
11272 H 163.7544802071474 122.23945754802584 124.33853451019503 H 0.0 **** 0.06
11273 H 164.86196733324633 123.56639516036732 123.91273039030516 H 0.0 **** 0.06
11274 H 163.16699765107904 123.91934997926039 124.32678955382265 H 0.0 **** 0.06
11275 H 163.5572474694282 123.1015876291796 122.79433852727489 H 0.0 **** 0.06
11276 C 55.599675101265944 40.22878973256033 8.896915780464987 C 0.0 **** -0.24
11277 H 55.26434461463211 41.26511877095115 8.871422119599153 H 0.0 **** 0.06
11278 H 55.77222342932916 39.928192687519896 9.930451875534168 H 0.0 **** 0.06
11279 H 56.527557805137675 40.13340282935542 8.331606636925471 H 0.0 **** 0.06
11280 H 54.83676432132553 39.58889321345572 8.45424441929304 H 0.0 **** 0.06
11281 C 47.28864353336448 128.65482548050352 167.56509092549464 C 0.0 **** -0.24
11282 H 47.95075220127271 128.5160826307761 166.71081001137674 H 0.0 **** 0.06
11283 H 47.84439574358797 129.1074370650232 168.3857501576383 H 0.0 **** 0.06
11284 H 46.89605435544962 127.6882530643897 167.88056336533964 H 0.0 **** 0.06
11285 H 46.46201492730275 129.30723003698438 167.28180161636718 H 0.0 **** 0.06
11286 C 167.26173384936206 10.443267689796471 52.4544446995353 C 0.0 **** -0.24
11287 H 167.70106951924097 9.84020939941081 53.24913346492632 H 0.0 **** 0.06
11288 H 167.16086708044028 9.839050268261985 51.55296504855944 H 0.0 **** 0.06
11289 H 167.90626713528357 11.297808631429405 52.24998450793788 H 0.0 **** 0.06
11290 H 166.2787747519891 10.796440028497756 52.76810551227726 H 0.0 **** 0.06
11291 C 58.23663071444501 117.10052534218691 152.94860693754552 C 0.0 **** -0.24
11292 H 57.699784278296846 117.2573677702246 152.0133771774993 H 0.0 **** 0.06
11293 H 57.525389976246004 116.86845050814476 153.741012916366 H 0.0 **** 0.06
11294 H 58.78817854913879 118.00445651531165 153.20651152520577 H 0.0 **** 0.06
11295 H 58.93396650428484 116.27051375898823 152.831150761926 H 0.0 **** 0.06
11296 C 44.20121968764806 40.920331183821986 150.4795843988153 C 0.0 **** -0.24
11297 H 45.25288181128275 41.16242684445746 150.63294616902772 H 0.0 **** 0.06
11298 H 44.07004488486626 40.480804873750174 149.49119725945448 H 0.0 **** 0.06
11299 H 43.6041920852407 41.82870177409524 150.55574382404654 H 0.0 **** 0.06
11300 H 43.87873213856395 40.208676669043314 151.24004545077727 H 0.0 **** 0.06
11301 C 115.07832030752263 137.64480889849568 122.21974776682872 C 0.0 **** -0.24
11302 H 115.47842762192624 138.58613195909322 121.84200656628728 H 0.0 **** 0.06
11303 H 114.82193802161731 136.99751540546845 121.38150997101859 H 0.0 **** 0.06
11304 H 114.18566097972854 137.84248022900687 122.81374923895767 H 0.0 **** 0.06
11305 H 115.82828214257478 137.1559265673448 122.84173384444496 H 0.0 **** 0.06
11306 C 43.234520336387845 52.9763088861701 146.42468050457202 C 0.0 **** -0.24
11307 H 42.998607231175725 53.52389419597944 147.33787584584437 H 0.0 **** 0.06
11308 H 42.92700061713521 51.93589318485425 146.5359378023463 H 0.0 **** 0.06
11309 H 44.30753138421625 53.02183035915999 146.24167662311544 H 0.0 **** 0.06
11310 H 42.70246186066856 53.42428796549723 145.58555543571316 H 0.0 **** 0.06
11311 C 81.92953141831867 8.047877275734628 99.16004831655066 C 0.0 **** -0.24
11312 H 81.97377329269139 8.023779587543117 100.24874722525591 H 0.0 **** 0.06
11313 H 81.12821284213625 7.3942516167190675 98.81548859820192 H 0.0 **** 0.06
11314 H 82.87983484711266 7.707106449781854 98.74989470636415 H 0.0 **** 0.06
11315 H 81.73438149542324 9.067800425155035 98.82786816341341 H 0.0 **** 0.06
11316 C 179.6014789368446 20.46665931180899 165.18842561764245 C 0.0 **** -0.24
11317 H 179.39114794672304 20.82563137054958 166.19639105523692 H 0.0 **** 0.06
11318 H 178.98692038579117 19.591580904481276 164.97923214393734 H 0.0 **** 0.06
11319 H 180.65578427951488 20.197837608481443 165.11137017984856 H 0.0 **** 0.06
11320 H 179.37355912682347 21.25264775677259 164.4683331988038 H 0.0 **** 0.06
11321 C 150.57687316623856 167.99025143107588 14.907125302177711 C 0.0 **** -0.24
11322 H 151.58153085250228 168.15720507088642 14.519619481900882 H 0.0 **** 0.06
11323 H 150.08916602831943 167.2067895257536 14.325813345792561 H 0.0 **** 0.06
11324 H 149.9993935401301 168.91192150540962 14.82976291129878 H 0.0 **** 0.06
11325 H 150.6357135243345 167.68470319660938 15.95157369334872 H 0.0 **** 0.06
11326 C 29.3130489357153 182.7083794175967 116.32378667054193 C 0.0 **** -0.24
11327 H 29.009906462632728 183.58135573510802 116.90132137871667 H 0.0 **** 0.06
11328 H 28.747724634003987 181.8377440389408 116.6565536163426 H 0.0 **** 0.06
11329 H 30.378215869189745 182.52847882501797 116.4720349896531 H 0.0 **** 0.06
11330 H 29.118256514559476 182.88709818052803 115.26624523683027 H 0.0 **** 0.06
11331 C 175.57854392664575 61.483409039340415 117.8369958101412 C 0.0 **** -0.24
11332 H 175.05959571848481 60.525119908346966 117.82335562304628 H 0.0 **** 0.06
11333 H 176.59791913307396 61.339977698812504 118.19612255147588 H 0.0 **** 0.06
11334 H 175.052983824974 62.170694377251294 118.49880225389349 H 0.0 **** 0.06
11335 H 175.60292953774106 61.89722632792356 116.82867345691416 H 0.0 **** 0.06
11336 C 5.0806143548952605 120.27583341937424 84.1909841477584 C 0.0 **** -0.24
11337 H 5.21133505684179 121.00255704546356 83.39029682524693 H 0.0 **** 0.06
11338 H 4.240528417098062 120.57443735502665 84.81832351275966 H 0.0 **** 0.06
11339 H 5.987369015407012 120.23304997162563 84.79478870067516 H 0.0 **** 0.06
11340 H 4.8829646672122635 119.29336464397954 83.76149015921317 H 0.0 **** 0.06
11341 C 182.53166126481426 58.48215827847868 132.54489239491073 C 0.0 **** -0.24
11342 H 181.78068153753352 58.526318846585596 133.33410381987972 H 0.0 **** 0.06
11343 H 182.2351887146261 57.741435812924166 131.80207503835908 H 0.0 **** 0.06
11344 H 183.49297097598753 58.202180512442666 132.97556448594298 H 0.0 **** 0.06
11345 H 182.61757171149003 59.459915172151995 132.07090271770772 H 0.0 **** 0.06
11346 C 71.53431798873692 146.35661741984794 93.91613224637808 C 0.0 **** -0.24
11347 H 71.4516722124194 147.13550923089946 93.15730379689796 H 0.0 **** 0.06
11348 H 70.53827365582657 145.99072722488512 94.1692773900769 H 0.0 **** 0.06
11349 H 72.00920610511969 146.76612919919802 94.80702882476697 H 0.0 **** 0.06
11350 H 72.13589625305013 145.5349000697002 93.52819470054533 H 0.0 **** 0.06
11351 C 134.13130588076774 34.77436774118377 13.474462173995732 C 0.0 **** -0.24
11352 H 133.46668562865915 35.49108386074187 13.956885523838821 H 0.0 **** 0.06
11353 H 134.7025004163067 35.2762642596137 12.694173109802946 H 0.0 **** 0.06
11354 H 133.54004932468428 33.97200975125537 13.03384931752452 H 0.0 **** 0.06
11355 H 134.81447802250932 34.35814199673388 14.21533216007338 H 0.0 **** 0.06
11356 C 65.03439588193395 66.52893090223537 47.743271704630104 C 0.0 **** -0.24
11357 H 64.13577893834663 66.0313827110726 47.37668231196676 H 0.0 **** 0.06
11358 H 64.83787853202388 66.95301005750848 48.72855602541068 H 0.0 **** 0.06
11359 H 65.31531106806003 67.3251792093654 47.05374747633874 H 0.0 **** 0.06
11360 H 65.8466259644868 65.80523798780484 47.8130013754656 H 0.0 **** 0.06
11361 C 74.76815408087302 39.41755870180825 162.38353661655597 C 0.0 **** -0.24
11362 H 75.4480384040548 39.949891516637564 163.0488459043373 H 0.0 **** 0.06
11363 H 74.87644217627098 39.80404277687232 161.3701052610804 H 0.0 **** 0.06
11364 H 73.7416630232401 39.56344434407471 162.72069661504423 H 0.0 **** 0.06
11365 H 75.00714572381577 38.35464091668278 162.39566567649126 H 0.0 **** 0.06
11366 C 105.62461399209899 18.071755472571 96.90293465219791 C 0.0 **** -0.24
11367 H 106.36520869201773 17.78444824070391 97.64870967595145 H 0.0 **** 0.06
11368 H 104.7931017230655 17.367678165611323 96.92642603985514 H 0.0 **** 0.06
11369 H 106.08244449803367 18.060230365551575 95.9128413179482 H 0.0 **** 0.06
11370 H 105.25833865168734 19.074826524798226 97.12162439409552 H 0.0 **** 0.06
11371 C 55.03910190004733 3.1795111595604624 96.15992662544626 C 0.0 **** -0.24
11372 H 56.098264269203895 3.20912344751099 96.41772029782389 H 0.0 **** 0.06
11373 H 54.805323172630054 2.221945817625965 95.69394754755082 H 0.0 **** 0.06
11374 H 54.81175141475836 3.9881043424480254 95.46559228773795 H 0.0 **** 0.06
11375 H 54.441964615590564 3.2977769876662535 97.06417859466261 H 0.0 **** 0.06
11376 C 81.16419684733984 171.5415098206841 16.346172338105177 C 0.0 **** -0.24
11377 H 81.03804835788269 172.41925830333395 15.713729866831017 H 0.0 **** 0.06
11378 H 80.18537219977016 171.14309434163187 16.613852722253753 H 0.0 **** 0.06
11379 H 81.7042553807436 171.82007958198227 17.25096514707969 H 0.0 **** 0.06
11380 H 81.72974085926835 170.78192159609733 15.804813762955135 H 0.0 **** 0.06
11381 C 64.43563787748896 175.53431228265356 88.93258642086509 C 0.0 **** -0.24
11382 H 63.396063397465355 175.491522698989 89.25517637478329 H 0.0 **** 0.06
11383 H 64.59197733096828 176.42796851472855 88.32843836260288 H 0.0 **** 0.06
11384 H 64.66828409386483 174.64980964968015 88.33942101498018 H 0.0 **** 0.06
11385 H 65.0867901875938 175.56676642268098 89.8061760062907 H 0.0 **** 0.06
11386 C 38.506539540492355 171.0253700245038 44.309389510818505 C 0.0 **** -0.24
11387 H 39.371832590956615 170.48633103325213 43.92311593439308 H 0.0 **** 0.06
11388 H 37.827195290656135 170.3234678618423 44.7924579255988 H 0.0 **** 0.06
11389 H 37.99220894848136 171.52269429971034 43.48691520951695 H 0.0 **** 0.06
11390 H 38.83744431160227 171.77014654238752 45.034530449860085 H 0.0 **** 0.06
11391 C 27.406266220204543 161.41580335285568 63.579043376124545 C 0.0 **** -0.24
11392 H 27.55328279442881 162.40796031347298 64.00424218025378 H 0.0 **** 0.06
11393 H 27.472790956744575 161.47230885531565 62.492343803323095 H 0.0 **** 0.06
11394 H 26.4225467655165 161.04167952906622 63.86455657907911 H 0.0 **** 0.06
11395 H 28.17507981482754 160.7415841230421 63.95522076339985 H 0.0 **** 0.06
11396 C 45.241938026311345 33.25836551406081 17.535307756147006 C 0.0 **** -0.24
11397 H 45.62317200085113 33.90527450817376 16.74477768734365 H 0.0 **** 0.06
11398 H 45.41270073526414 32.21600000570919 17.264753460650304 H 0.0 **** 0.06
11399 H 44.172951480832126 33.43058325619654 17.661356090060337 H 0.0 **** 0.06
11400 H 45.75892402613971 33.48262829449004 18.468118580853066 H 0.0 **** 0.06
11401 C 23.409623435069648 155.326792721819 30.829669250892678 C 0.0 **** -0.24
11402 H 23.05119427907539 155.59375253393029 29.835677121344332 H 0.0 **** 0.06
11403 H 23.211744816442803 156.14716063295558 31.519601789247005 H 0.0 **** 0.06
11404 H 24.481197609986708 155.13544940017147 30.78958378841928 H 0.0 **** 0.06
11405 H 22.892687818430602 154.43049833555898 31.17235905547963 H 0.0 **** 0.06
11406 C 65.17394753396184 134.61023885973208 79.80389591142045 C 0.0 **** -0.24
11407 H 65.77373503559568 135.51066929885184 79.66917266005484 H 0.0 **** 0.06
11408 H 64.36679908458757 134.5998908305728 79.07167282151084 H 0.0 **** 0.06
11409 H 64.75458769123668 134.60033197526485 80.80893794484935 H 0.0 **** 0.06
11410 H 65.80299999487335 133.73082507497344 79.66297472639054 H 0.0 **** 0.06
11411 C 61.67535739087576 51.39469375178349 58.3340645527303 C 0.0 **** -0.24
11412 H 61.55005551349561 51.19276991531875 57.27084042876393 H 0.0 **** 0.06
11413 H 62.09374268066739 52.39265138125437 58.46762989131493 H 0.0 **** 0.06
11414 H 62.349978422529176 50.657112907204805 58.76726923014694 H 0.0 **** 0.06
11415 H 60.7069153887074 51.336675222507594 58.83103568367365 H 0.0 **** 0.06
11416 C 37.812595593165156 19.045597258594327 95.01218224413346 C 0.0 **** -0.24
11417 H 37.210946804102235 19.950658309987432 95.09269670661608 H 0.0 **** 0.06
11418 H 37.51791937792754 18.343074741371318 95.7928668457191 H 0.0 **** 0.06
11419 H 38.86598957785111 19.297746773858506 95.12899006734283 H 0.0 **** 0.06
11420 H 37.65394726247072 18.59007739565545 94.03507748642268 H 0.0 **** 0.06
11421 C 2.798118183987114 168.3994181174725 101.44321255632616 C 0.0 **** -0.24
11422 H 1.909406021802802 169.02309058617325 101.35214839065378 H 0.0 **** 0.06
11423 H 2.586117047236833 167.4043669732894 101.0537705607149 H 0.0 **** 0.06
11424 H 3.0841560893677027 168.3262547842073 102.49322438766518 H 0.0 **** 0.06
11425 H 3.615194532002377 168.84591761913043 100.8758054536845 H 0.0 **** 0.06
11426 C 56.23213933831437 146.59688892150155 139.08591387914345 C 0.0 **** -0.24
11427 H 55.31944132009028 147.01240154895314 138.65919741752958 H 0.0 **** 0.06
11428 H 57.02190546646099 147.3474486778998 139.05411957747123 H 0.0 **** 0.06
11429 H 56.536805980788756 145.722629346072 138.5111932696533 H 0.0 **** 0.06
11430 H 56.04943970650726 146.30531221038072 140.12088115648174 H 0.0 **** 0.06
11431 C 80.0819981170017 91.01526061556639 79.51682983000549 C 0.0 **** -0.24
11432 H 80.38275335866803 90.07290561980479 79.97475090582682 H 0.0 **** 0.06
11433 H 79.23037580436855 91.42739664196428 80.05926943642936 H 0.0 **** 0.06
11434 H 79.80244334596851 90.8408750480232 78.47811083425785 H 0.0 **** 0.06
11435 H 80.91297017081186 91.71941736339055 79.556768278327 H 0.0 **** 0.06
11436 C 89.94813162489754 101.38355718512308 121.27954902513459 C 0.0 **** -0.24
11437 H 89.89690689631306 101.93634674421521 120.34232010080574 H 0.0 **** 0.06
11438 H 89.36921885420469 100.46418886162984 121.19037358821008 H 0.0 **** 0.06
11439 H 89.53764832513866 101.99421650844924 122.08428813629179 H 0.0 **** 0.06
11440 H 90.98632200922418 101.13975430939077 121.50108729226507 H 0.0 **** 0.06
11441 C 54.14365522762361 80.20077178809571 5.9794972547903456 C 0.0 **** -0.24
11442 H 54.18566821385269 81.12401403545773 6.557647782113548 H 0.0 **** 0.06
11443 H 53.134874355000434 79.79027353247022 6.023220192993648 H 0.0 **** 0.06
11444 H 54.84790738971796 79.48003777877392 6.395417621005151 H 0.0 **** 0.06
11445 H 54.40810338351446 80.40948155986867 4.943025470833874 H 0.0 **** 0.06
11446 C 182.86480047582756 35.25146391122914 22.54526922857565 C 0.0 **** -0.24
11447 H 181.9962141531962 34.622604721191834 22.73676660396933 H 0.0 **** 0.06
11448 H 182.9744894065488 35.40283429788735 21.471182304611375 H 0.0 **** 0.06
11449 H 183.75850502184412 34.76551574021627 22.937414527951546 H 0.0 **** 0.06
11450 H 182.73076778863518 36.215472322272774 23.035442026361693 H 0.0 **** 0.06
11451 C 88.30978011079003 13.871811877890536 7.947587684799998 C 0.0 **** -0.24
11452 H 88.13697661370281 14.110175944436321 6.89765439666337 H 0.0 **** 0.06
11453 H 88.73962355276058 12.872683569531091 8.026331762450639 H 0.0 **** 0.06
11454 H 87.36287250553193 13.903687952866449 8.486390304150973 H 0.0 **** 0.06
11455 H 88.99755409441798 14.599513627238082 8.377289270811445 H 0.0 **** 0.06
11456 C 120.31446069613018 67.20219928804897 69.2472961056136 C 0.0 **** -0.24
11457 H 120.71333963243875 67.97686903514656 69.90247985827207 H 0.0 **** 0.06
11458 H 120.6565642215855 67.37770973141932 68.22705513364167 H 0.0 **** 0.06
11459 H 119.22511861171974 67.22829441839144 69.27501308337666 H 0.0 **** 0.06
11460 H 120.66350956295288 66.22626550163733 69.58582308477185 H 0.0 **** 0.06
11461 C 65.59571325937968 126.64412505697805 160.97932877614883 C 0.0 **** -0.24
11462 H 65.86559790139007 126.71062561906558 159.92572244558966 H 0.0 **** 0.06
11463 H 66.09738574078044 127.43764655686056 161.53377600555476 H 0.0 **** 0.06
11464 H 65.90323624936414 125.67568480882107 161.3736883281432 H 0.0 **** 0.06
11465 H 64.51597410234899 126.75360884437174 161.08532424742052 H 0.0 **** 0.06
11466 C 57.54861742478987 16.940652361948665 77.01907379676351 C 0.0 **** -0.24
11467 H 56.744627249372684 17.573720487145827 76.64404992698661 H 0.0 **** 0.06
11468 H 57.64476703493662 17.07456760973224 78.09682902766211 H 0.0 **** 0.06
11469 H 58.4853839994837 17.21639514648541 76.53361041743645 H 0.0 **** 0.06
11470 H 57.32009082920996 15.896811324828278 76.80103279395819 H 0.0 **** 0.06
11471 C 140.85815141209372 148.1337117764912 83.71510247583478 C 0.0 **** -0.24
11472 H 140.63130205915814 148.39714135047657 82.68180164581466 H 0.0 **** 0.06
11473 H 140.53231050084884 147.11179974450363 83.90949091851392 H 0.0 **** 0.06
11474 H 140.33593363656803 148.81668675739562 84.38581937324747 H 0.0 **** 0.06
11475 H 141.9321024391282 148.21093279258955 83.88291324547606 H 0.0 **** 0.06
11476 C 94.03794102194495 20.89875622900746 70.5498736252992 C 0.0 **** -0.24
11477 H 93.0811249212948 21.289238542711587 70.20391862175437 H 0.0 **** 0.06
11478 H 93.86499526426998 20.146096487844886 71.32009728142063 H 0.0 **** 0.06
11479 H 94.63474450935281 21.71178860196136 70.96198319165563 H 0.0 **** 0.06
11480 H 94.56865374462957 20.44587153701596 69.71213987508928 H 0.0 **** 0.06
11481 C 155.33381447340142 37.162749829527115 142.0759800014257 C 0.0 **** -0.24
11482 H 154.87621493281324 36.22272516493899 141.76692067865133 H 0.0 **** 0.06
11483 H 156.41499698853877 37.03666632030149 142.13810645286725 H 0.0 **** 0.06
11484 H 154.9448268636255 37.45186162512914 143.05190948318045 H 0.0 **** 0.06
11485 H 155.099157252388 37.93833749518075 141.34687498360194 H 0.0 **** 0.06
11486 C 144.61032430768697 182.24900671142387 98.52787406779298 C 0.0 **** -0.24
11487 H 144.93202396143946 183.25884086264432 98.77836884050787 H 0.0 **** 0.06
11488 H 143.75088215706865 181.97822022797982 99.14217388360323 H 0.0 **** 0.06
11489 H 145.42600709152327 181.55064598499573 98.71585348710782 H 0.0 **** 0.06
11490 H 144.33091898026726 182.20744902514852 97.47479097436768 H 0.0 **** 0.06
11491 C 15.79329617237147 0.059092267955534794 180.0186090417228 C 0.0 **** -0.24
11492 H 15.337657242726323 -0.06755793543884181 181.0007664931539 H 0.0 **** 0.06
11493 H 15.111805135813114 0.6113440513625577 179.3703526601467 H 0.0 **** 0.06
11494 H 15.995411628724725 -0.9199964343901215 179.58265256041693 H 0.0 **** 0.06
11495 H 16.727631879475382 0.6114710810165889 180.12010684505012 H 0.0 **** 0.06
11496 C 79.65795671134885 143.91084511416153 156.78314396216223 C 0.0 **** -0.24
11497 H 78.6547385230242 144.256102431028 157.03367145103516 H 0.0 **** 0.06
11498 H 79.6130419590653 142.8719184730155 156.4558024381391 H 0.0 **** 0.06
11499 H 80.29764274340664 143.98763392052086 157.66261234370458 H 0.0 **** 0.06
11500 H 80.06445177275776 144.5283847960693 155.98267044543084 H 0.0 **** 0.06
11501 C 72.16539898362811 3.0986411824922016 20.98220564198519 C 0.0 **** -0.24
11502 H 71.21081776648681 2.7517955244414054 20.585591004591294 H 0.0 **** 0.06
11503 H 72.97898477663183 2.577309550829881 20.47715033069727 H 0.0 **** 0.06
11504 H 72.21019400397142 2.8929671752484865 22.051733563312922 H 0.0 **** 0.06
11505 H 72.26057269130054 4.170444088511516 20.81348156430525 H 0.0 **** 0.06
11506 C 0.3064861678764714 67.8356826459003 40.9996004501794 C 0.0 **** -0.24
11507 H 0.23027070195115584 68.89894579599499 41.227924887558515 H 0.0 **** 0.06
11508 H 0.4843547415111402 67.7052493810711 39.93230091904434 H 0.0 **** 0.06
11509 H -0.6230750918135755 67.33710411452816 41.2763796124359 H 0.0 **** 0.06
11510 H 1.1329655341862122 67.40221478957899 41.562383558999386 H 0.0 **** 0.06
11511 C 26.25684768033466 131.35650166509038 3.6228379716988 C 0.0 **** -0.24
11512 H 26.71650677461224 130.61592963717834 2.9687111187749124 H 0.0 **** 0.06
11513 H 26.16082268372702 132.30188591074545 3.0896155308235222 H 0.0 **** 0.06
11514 H 26.87918980426724 131.49747132768942 4.5058239099753195 H 0.0 **** 0.06
11515 H 25.269106099529694 131.0078310213276 3.9264672636224205 H 0.0 **** 0.06
11516 C 152.4902337197576 126.91358502960652 46.40023674483078 C 0.0 **** -0.24
11517 H 152.0221623247487 127.39203936612766 47.261638525489175 H 0.0 **** 0.06
11518 H 152.5811371114802 127.63610673890942 45.589441884226645 H 0.0 **** 0.06
11519 H 151.87567257840192 126.07435638386353 46.07316906344113 H 0.0 **** 0.06
11520 H 153.48001506455932 126.55196791975412 46.679185346070284 H 0.0 **** 0.06
11521 C 92.55879368155014 114.32753698996515 16.92752697769913 C 0.0 **** -0.24
11522 H 92.26341006052881 114.37834566578783 17.975515221130593 H 0.0 **** 0.06
11523 H 91.9786047278556 113.55359434288835 16.424644357161583 H 0.0 **** 0.06
11524 H 93.61986794751733 114.0880212908495 16.859160387090526 H 0.0 **** 0.06
11525 H 92.37157237081503 115.2900137342287 16.450902311214975 H 0.0 **** 0.06
11526 C 140.74818814819275 51.25624028222512 107.93021654656064 C 0.0 **** -0.24
11527 H 140.5558989453906 50.192851521494276 107.78128496842771 H 0.0 **** 0.06
11528 H 141.22038689087225 51.40709435783697 108.90088062539576 H 0.0 **** 0.06
11529 H 139.80535240548767 51.80279633664463 107.89523620548925 H 0.0 **** 0.06
11530 H 141.4089167105456 51.61936103529189 107.14340752677663 H 0.0 **** 0.06
11531 C 69.82073098905153 5.5448317173435555 114.58997178968201 C 0.0 **** -0.24
11532 H 70.06481374149695 5.668590344927338 113.53431616168558 H 0.0 **** 0.06
11533 H 70.15455233841368 4.5627883778503815 114.92599941586712 H 0.0 **** 0.06
11534 H 68.7420940174008 5.628596583136812 114.724898096002 H 0.0 **** 0.06
11535 H 70.32207076464664 6.318512872442199 115.17107784770599 H 0.0 **** 0.06
11536 C 62.41147103056953 53.11197739933213 177.55089237890144 C 0.0 **** -0.24
11537 H 62.06155412680394 53.96220106872951 178.13635222830678 H 0.0 **** 0.06
11538 H 63.473011495525554 52.95073225495632 177.74253591468045 H 0.0 **** 0.06
11539 H 62.26061579021375 53.31389718705428 176.49062569125633 H 0.0 **** 0.06
11540 H 61.8513502251982 52.22033024457775 177.83391431629283 H 0.0 **** 0.06
11541 C 84.72487153836803 84.99370349921587 128.70822945146443 C 0.0 **** -0.24
11542 H 84.9173633164322 85.13607955220331 129.77235650092376 H 0.0 **** 0.06
11543 H 84.38279833549305 83.97224876386075 128.53559236895842 H 0.0 **** 0.06
11544 H 85.64180050564705 85.1707267509513 128.1465005230677 H 0.0 **** 0.06
11545 H 83.95711966496248 85.69408971627608 128.38163867533228 H 0.0 **** 0.06
11546 C 146.91561713833323 32.6093443464126 112.80671079263028 C 0.0 **** -0.24
11547 H 147.78652182206696 33.14566889147687 112.42884124204006 H 0.0 **** 0.06
11548 H 146.0362993982345 33.250999951284314 112.73681228010666 H 0.0 **** 0.06
11549 H 147.08295268991537 32.334297379424925 113.84816715121208 H 0.0 **** 0.06
11550 H 146.75695206423188 31.709398666156346 112.2131162226632 H 0.0 **** 0.06
11551 C 52.34431876875301 59.438146890395274 8.22627779788506 C 0.0 **** -0.24
11552 H 52.414967725156174 59.986535754650546 7.286534875623865 H 0.0 **** 0.06
11553 H 52.656647941343294 60.08424556379606 9.047566048216972 H 0.0 **** 0.06
11554 H 52.99232034523885 58.56250621946522 8.186306068215373 H 0.0 **** 0.06
11555 H 51.313753877380066 59.12114403929999 8.38535813714956 H 0.0 **** 0.06
11556 C 20.944066619066263 136.4682495963292 130.2839848123043 C 0.0 **** -0.24
11557 H 21.834967547670118 137.09139221249126 130.2133650467972 H 0.0 **** 0.06
11558 H 20.055511152094994 137.09641023204466 130.22849842958982 H 0.0 **** 0.06
11559 H 20.951117512941607 135.9312669339381 131.23283584573454 H 0.0 **** 0.06
11560 H 20.936127877239215 135.75199310765254 129.46159742530836 H 0.0 **** 0.06
11561 C 66.16708059776187 54.26846984656936 164.90294607077266 C 0.0 **** -0.24
11562 H 66.19131278961075 54.92781231135014 164.03486272358137 H 0.0 **** 0.06
11563 H 65.89937344882267 53.25964841823772 164.58497180999262 H 0.0 **** 0.06
11564 H 65.42823892669439 54.6332849156245 165.6156853539862 H 0.0 **** 0.06
11565 H 67.15039964463803 54.25203851690729 165.37385694075888 H 0.0 **** 0.06
11566 C 71.7961578728294 34.816629825209816 72.7342715650973 C 0.0 **** -0.24
11567 H 72.01059003011976 34.399323185123876 71.75040755946104 H 0.0 **** 0.06
11568 H 72.20749556028989 35.82390569444726 72.79798959590256 H 0.0 **** 0.06
11569 H 72.24825016330934 34.18942788254196 73.50141666364536 H 0.0 **** 0.06
11570 H 70.71743683682932 34.854907859118384 72.8845947899501 H 0.0 **** 0.06
11571 C 77.14627951207959 21.48703045964686 178.25340476133553 C 0.0 **** -0.24
11572 H 77.89947257528065 21.86533055469488 177.5615986951546 H 0.0 **** 0.06
11573 H 77.29147494256571 21.94352181518667 179.23327430866496 H 0.0 **** 0.06
11574 H 77.24380681692622 20.4043821050397 178.3384714846198 H 0.0 **** 0.06
11575 H 76.15251866368075 21.734627699605255 177.88081203998675 H 0.0 **** 0.06
11576 C 34.5170943846955 6.682882920727707 100.52782913553223 C 0.0 **** -0.24
11577 H 35.36563608058694 7.232172365300471 100.11798953350971 H 0.0 **** 0.06
11578 H 34.37237178712763 6.963934515688038 101.57043774181825 H 0.0 **** 0.06
11579 H 34.71231618760825 5.612407020436649 100.46185819713072 H 0.0 **** 0.06
11580 H 33.61974738039973 6.924302963414107 99.957498444482 H 0.0 **** 0.06
11581 C 68.9642871217028 24.915924558721173 59.273301728343654 C 0.0 **** -0.24
11582 H 67.9742914900508 24.462693095693353 59.332473308745904 H 0.0 **** 0.06
11583 H 68.93099833658533 25.917743576726508 59.70366659816065 H 0.0 **** 0.06
11584 H 69.27337479113567 24.979204347305313 58.229439730277406 H 0.0 **** 0.06
11585 H 69.67752539753525 24.30483631895011 59.826938524356606 H 0.0 **** 0.06
11586 C 148.52167042884747 65.4451886784891 26.714819338517557 C 0.0 **** -0.24
11587 H 148.72744222877822 66.50149363146885 26.885653047780025 H 0.0 **** 0.06
11588 H 147.7392424382893 65.344505204795 25.9625104619154 H 0.0 **** 0.06
11589 H 148.19351543606064 64.98417778850276 27.646317925960815 H 0.0 **** 0.06
11590 H 149.42779340845502 64.95096328475421 26.364434166351458 H 0.0 **** 0.06
11591 C 6.733584161297131 165.41225648959116 139.23815717272572 C 0.0 **** -0.24
11592 H 6.6983339207517645 166.08985409259014 140.09120012077574 H 0.0 **** 0.06
11593 H 6.075956990715071 165.78488214117837 138.45147868501437 H 0.0 **** 0.06
11594 H 6.403696967610983 164.4213833541076 139.54830907273822 H 0.0 **** 0.06
11595 H 7.7541145104422355 165.35510114500835 138.8620782064349 H 0.0 **** 0.06
11596 C 160.1510295448118 132.4451935147929 2.158887886708186 C 0.0 **** -0.24
11597 H 160.56908868939158 131.92903643430589 3.022998283353246 H 0.0 **** 0.06
11598 H 160.37053383272843 131.87698286755034 1.2550201479327256 H 0.0 **** 0.06
11599 H 160.59216409709083 133.43849433706959 2.080675814651272 H 0.0 **** 0.06
11600 H 159.0715438458462 132.53621129716873 2.2786950147301184 H 0.0 **** 0.06
11601 C 31.908146922590277 17.9403591296629 125.48096033894556 C 0.0 **** -0.24
11602 H 31.655751842090297 17.116128594712194 126.1475479884147 H 0.0 **** 0.06
11603 H 31.818655521273854 18.88401869534779 126.0194297299392 H 0.0 **** 0.06
11604 H 31.22590355953821 17.94112593256788 124.629877022956 H 0.0 **** 0.06
11605 H 32.93131216439855 17.820189133645762 125.12595272725243 H 0.0 **** 0.06
11606 C 108.13882747000929 46.259974051324434 134.96944300446762 C 0.0 **** -0.24
11607 H 107.7169682494922 45.53895914065299 134.26906977110326 H 0.0 **** 0.06
11608 H 108.5852541210462 45.73023324085477 135.81125788546103 H 0.0 **** 0.06
11609 H 107.35071142569967 46.92052997582533 135.33098046617636 H 0.0 **** 0.06
11610 H 108.90411753707969 46.849316320158664 134.4649698620567 H 0.0 **** 0.06
11611 C 74.74256370114531 117.93588134385891 120.08093078269576 C 0.0 **** -0.24
11612 H 75.16032063234556 116.9762876727716 119.77854450101216 H 0.0 **** 0.06
11613 H 74.96219610585428 118.68451525064495 119.31893322757065 H 0.0 **** 0.06
11614 H 75.18541584739643 118.24183583636153 121.0288253925927 H 0.0 **** 0.06
11615 H 73.66335621813302 117.84177367942658 120.19779950013708 H 0.0 **** 0.06
11616 C 17.733153016461642 126.8191462663885 59.30617976312469 C 0.0 **** -0.24
11617 H 18.816102613267503 126.88193385355318 59.408777189014714 H 0.0 **** 0.06
11618 H 17.3970729213068 127.53855655910992 58.558626825804794 H 0.0 **** 0.06
11619 H 17.263423413412482 127.04376709942237 60.26430604364846 H 0.0 **** 0.06
11620 H 17.454324535215108 125.81254973781598 58.99269372126999 H 0.0 **** 0.06
11621 C 159.10421558068487 88.51503183277627 44.6510987522729 C 0.0 **** -0.24
11622 H 159.29581855273 87.55066757540094 45.1212489780043 H 0.0 **** 0.06
11623 H 158.05704403648383 88.7854797631306 44.788517999004455 H 0.0 **** 0.06
11624 H 159.32663346703512 88.44955185267501 43.586355589447976 H 0.0 **** 0.06
11625 H 159.7387194973181 89.27405554171857 45.108445608317965 H 0.0 **** 0.06
11626 C 178.87310807817582 94.26195046577459 150.24184136826372 C 0.0 **** -0.24
11627 H 177.93987081781177 94.68305865533631 150.61837226959167 H 0.0 **** 0.06
11628 H 179.70397965497276 94.9043416658107 150.53281442846395 H 0.0 **** 0.06
11629 H 178.82720757320817 94.19489178315735 149.15475965740274 H 0.0 **** 0.06
11630 H 179.01711317564542 93.26641747397758 150.66127902596907 H 0.0 **** 0.06
11631 C 36.45897203507725 100.96183165190996 72.37537119882165 C 0.0 **** -0.24
11632 H 35.86783838298442 101.82802381942122 72.07691933534778 H 0.0 **** 0.06
11633 H 36.10833707453256 100.5985549439281 73.34166594392178 H 0.0 **** 0.06
11634 H 37.50843627585225 101.24856328543706 72.45396624987166 H 0.0 **** 0.06
11635 H 36.35233806832301 100.17459204992252 71.6299710809551 H 0.0 **** 0.06
11636 C 156.9092585973733 126.10604063296739 151.99416591992565 C 0.0 **** -0.24
11637 H 157.16685446328444 126.93320153589809 151.33263770779925 H 0.0 **** 0.06
11638 H 156.47290707922454 125.29579671872693 151.4099086828864 H 0.0 **** 0.06
11639 H 156.18884363698524 126.44599107902741 152.7384873250105 H 0.0 **** 0.06
11640 H 157.80842920999896 125.7491731982168 152.4956299640067 H 0.0 **** 0.06
11641 C 142.53607873677782 63.38566057493988 65.47894096225599 C 0.0 **** -0.24
11642 H 142.9771224019403 62.88549289892826 66.34119796936187 H 0.0 **** 0.06
11643 H 143.12275513075747 63.15919820148832 64.58894548353666 H 0.0 **** 0.06
11644 H 142.5327546969827 64.46306956672764 65.64782615721364 H 0.0 **** 0.06
11645 H 141.51387294399944 63.035818688175794 65.34010185810033 H 0.0 **** 0.06
11646 C 79.26107729010783 153.39768136382298 124.7148510487437 C 0.0 **** -0.24
11647 H 78.21032352231327 153.11398192166007 124.66391495147718 H 0.0 **** 0.06
11648 H 79.36706726674879 154.4484445053402 124.44762403846642 H 0.0 **** 0.06
11649 H 79.83515382644151 152.78539740064411 124.01859185130138 H 0.0 **** 0.06
11650 H 79.63182490787943 153.2398592275508 125.72761792189954 H 0.0 **** 0.06
11651 C 100.9223518218339 57.088196483677336 60.07628585698765 C 0.0 **** -0.24
11652 H 100.27066148038989 56.672019995353594 60.84423454110946 H 0.0 **** 0.06
11653 H 100.44911843169854 56.97748302541345 59.100145459579124 H 0.0 **** 0.06
11654 H 101.87437347278257 56.55742532637811 60.080300500891084 H 0.0 **** 0.06
11655 H 101.09483547869871 58.14478807605195 60.27963762878365 H 0.0 **** 0.06
11656 C 15.386466022392987 13.20294758192398 36.25795260445773 C 0.0 **** -0.24
11657 H 16.195061186168502 13.593754999374312 36.87582944687858 H 0.0 **** 0.06
11658 H 14.775258767929941 12.521589230979714 36.849792830212095 H 0.0 **** 0.06
11659 H 15.806389521529958 12.66853282287343 35.40572347649385 H 0.0 **** 0.06
11660 H 14.77067931611223 14.029260836369644 35.901828302215165 H 0.0 **** 0.06
11661 C 89.71014459944014 178.60334439673733 61.302672534987664 C 0.0 **** -0.24
11662 H 90.5267911143816 179.19036916539488 60.880813805369144 H 0.0 **** 0.06
11663 H 89.92379422370134 178.38359384745092 62.34832586100799 H 0.0 **** 0.06
11664 H 89.60908827552775 177.6710221825217 60.747729065675 H 0.0 **** 0.06
11665 H 88.78229980515216 179.1710976639505 61.232503952139155 H 0.0 **** 0.06
11666 C 21.518736571342416 16.496946256488684 142.9594562385729 C 0.0 **** -0.24
11667 H 21.519092344208445 17.33335573168256 142.2604301808836 H 0.0 **** 0.06
11668 H 22.206950292080506 15.72839564059197 142.60631290894355 H 0.0 **** 0.06
11669 H 20.513371338654103 16.08175122399922 143.02736933470158 H 0.0 **** 0.06
11670 H 21.835740623172953 16.84457802139235 143.94234531333177 H 0.0 **** 0.06
11671 C 98.3433802097386 111.05473435607884 50.3977194771749 C 0.0 **** -0.24
11672 H 99.36062643341802 111.2629611015304 50.06746641633147 H 0.0 **** 0.06
11673 H 98.0580121581732 111.7726434485251 51.16854374050176 H 0.0 **** 0.06
11674 H 98.29336378320073 110.04496472500638 50.80510014963872 H 0.0 **** 0.06
11675 H 97.66182802020285 111.14003594201098 49.55122457372738 H 0.0 **** 0.06
11676 C 41.166018161762906 48.661253011106595 45.93037746519758 C 0.0 **** -0.24
11677 H 40.205908744794954 48.47211453817255 45.44956572961695 H 0.0 **** 0.06
11678 H 41.973216793347376 48.398348471885356 45.24620354545134 H 0.0 **** 0.06
11679 H 41.24519041973298 48.05755258523817 46.83486402137174 H 0.0 **** 0.06
11680 H 41.239756689176176 49.71699644913045 46.19087656435033 H 0.0 **** 0.06
11681 C 111.16927740412369 169.06877524186277 175.76723567386924 C 0.0 **** -0.24
11682 H 112.05944458357827 169.6975063303914 175.814964287242 H 0.0 **** 0.06
11683 H 111.14976775623681 168.4015588751532 176.62952221640057 H 0.0 **** 0.06
11684 H 111.19038147146954 168.4787639778486 174.85060504683494 H 0.0 **** 0.06
11685 H 110.27999074664693 169.69845489538605 175.77316186262664 H 0.0 **** 0.06
11686 C 177.99602406027594 45.15019771569612 162.32995199207198 C 0.0 **** -0.24
11687 H 177.9532792244848 44.12689185452754 161.95828906367112 H 0.0 **** 0.06
11688 H 178.86406811599767 45.265436637115556 162.97997576196576 H 0.0 **** 0.06
11689 H 177.0880547343748 45.37002726410802 162.89339239522062 H 0.0 **** 0.06
11690 H 178.07650049766096 45.838401994051594 161.48858300342175 H 0.0 **** 0.06
11691 C 60.277245721767684 62.370328483873806 146.64893684454668 C 0.0 **** -0.24
11692 H 59.19774742724748 62.214149677189525 146.629700822674 H 0.0 **** 0.06
11693 H 60.73555774492645 61.83444053962148 145.81794673891505 H 0.0 **** 0.06
11694 H 60.680381509223466 61.99755402765078 147.5905992614908 H 0.0 **** 0.06
11695 H 60.49119177306227 63.43510045469846 146.5578868961825 H 0.0 **** 0.06
11696 C 29.422574373798568 92.17323946117595 179.08770777374707 C 0.0 **** -0.24
11697 H 29.884792908553464 92.96221364457766 179.68213620604138 H 0.0 **** 0.06
11698 H 28.657530814487387 92.6065558950835 178.44214319459473 H 0.0 **** 0.06
11699 H 28.966711196754545 91.43861137300495 179.75076861206833 H 0.0 **** 0.06
11700 H 30.182377716857843 91.68833021487943 178.47469858227498 H 0.0 **** 0.06
11701 C 106.29039967092721 154.94505477447058 111.70776153190707 C 0.0 **** -0.24
11702 H 107.2109745811782 154.42717809938694 111.44173163541433 H 0.0 **** 0.06
11703 H 106.40640901644228 156.01309716656704 111.51773338248978 H 0.0 **** 0.06
11704 H 106.076416124381 154.78591480252368 112.76472836160724 H 0.0 **** 0.06
11705 H 105.46778522315141 154.55676154575838 111.10758306541015 H 0.0 **** 0.06
11706 C 41.92125468429347 33.16917288770463 49.94528198789874 C 0.0 **** -0.24
11707 H 42.00187719426549 32.22683011680306 49.40420855879448 H 0.0 **** 0.06
11708 H 42.3832664738635 33.06542853568965 50.9271488746776 H 0.0 **** 0.06
11709 H 40.86927701184564 33.43058585919488 50.064515479932 H 0.0 **** 0.06
11710 H 42.42890303385684 33.95351255001873 49.38513220884671 H 0.0 **** 0.06
11711 C 72.36079960901573 110.24929085320387 9.192709708912645 C 0.0 **** -0.24
11712 H 72.6031420610198 109.19551140488589 9.335868405352585 H 0.0 **** 0.06
11713 H 72.48016474685028 110.50916871141176 8.140408491996709 H 0.0 **** 0.06
11714 H 73.0301027300378 110.86081163590605 9.797470005885828 H 0.0 **** 0.06
11715 H 71.32885489255722 110.42882156859646 9.497022423550959 H 0.0 **** 0.06
11716 C 11.456396388896366 24.4484757242506 164.33110389089947 C 0.0 **** -0.24
11717 H 10.37379094352059 24.322047157947225 164.30343355748704 H 0.0 **** 0.06
11718 H 11.93798475842172 23.50928879362307 164.05646422218857 H 0.0 **** 0.06
11719 H 11.762041999827375 24.73408938544833 165.33743184445336 H 0.0 **** 0.06
11720 H 11.748816485403268 25.227375595208386 163.62681144853093 H 0.0 **** 0.06
11721 C 104.95545146879367 74.10702075436619 44.26542536358164 C 0.0 **** -0.24
11722 H 105.5315558446109 73.84329425798788 43.378537295996125 H 0.0 **** 0.06
11723 H 105.07029990177803 73.32705666782422 45.01889550417971 H 0.0 **** 0.06
11724 H 103.90313107954533 74.20406496283064 44.00029415418976 H 0.0 **** 0.06
11725 H 105.31851614026947 75.0550992289264 44.66500848236893 H 0.0 **** 0.06
11726 C 163.0036731929657 66.74082807253853 97.95238558090074 C 0.0 **** -0.24
11727 H 163.08279653355794 66.24404379871046 96.98494397148693 H 0.0 **** 0.06
11728 H 162.27770677639126 67.55277802368403 97.88446304194918 H 0.0 **** 0.06
11729 H 163.97558856610527 67.14475517457304 98.23434612168955 H 0.0 **** 0.06
11730 H 162.67591637683708 66.02301747905827 98.70351989270688 H 0.0 **** 0.06
11731 C 166.18260295647835 132.7711681948344 175.16051082891113 C 0.0 **** -0.24
11732 H 166.9144065960363 131.982142758424 174.98863690538167 H 0.0 **** 0.06
11733 H 165.6974031501035 133.02745082211163 174.2189850921778 H 0.0 **** 0.06
11734 H 166.68494983408178 133.6512936641264 175.56218126756173 H 0.0 **** 0.06
11735 H 165.43378725454707 132.42396726730243 175.87321409907264 H 0.0 **** 0.06
11736 C 155.9608715705239 74.10470381557103 89.87618645653352 C 0.0 **** -0.24
11737 H 156.6195605179588 74.91385757336455 89.5591100373373 H 0.0 **** 0.06
11738 H 155.74237619779984 73.46033335182676 89.02441544868988 H 0.0 **** 0.06
11739 H 155.03242225735 74.52375668312393 90.26416446039293 H 0.0 **** 0.06
11740 H 156.45131976972863 73.52313751870781 90.65685320481784 H 0.0 **** 0.06
11741 C 76.038522955254 27.281678857074553 149.64168079979288 C 0.0 **** -0.24
11742 H 76.88390552090117 26.607900619107482 149.78078351148952 H 0.0 **** 0.06
11743 H 75.11622032448226 26.701482874495042 149.59090791896438 H 0.0 **** 0.06
11744 H 76.1680475879907 27.839376310712055 148.71358796549555 H 0.0 **** 0.06
11745 H 75.98553119541693 27.976262720227425 150.4797162884339 H 0.0 **** 0.06
11746 C 163.14090511666308 159.04085118137766 62.47468730925182 C 0.0 **** -0.24
11747 H 163.94135413242873 158.30599064374425 62.55998516645745 H 0.0 **** 0.06
11748 H 163.04878847716793 159.58737713685719 63.412545099433615 H 0.0 **** 0.06
11749 H 162.2022501982015 158.53165236208133 62.25668073987259 H 0.0 **** 0.06
11750 H 163.37107438998038 159.73756789432662 61.668981856136796 H 0.0 **** 0.06
11751 C 185.36204975538146 89.8062004999274 22.10053226807753 C 0.0 **** -0.24
11752 H 185.8484888365863 90.46982945405415 22.815593105058667 H 0.0 **** 0.06
11753 H 186.11612389440262 89.34366908034508 21.46425542195567 H 0.0 **** 0.06
11754 H 184.6694579986914 90.38161064515134 21.485408530409387 H 0.0 **** 0.06
11755 H 184.81472974047682 89.03238986391239 22.63747568056968 H 0.0 **** 0.06
11756 C 85.1046285985174 174.6972901222768 167.58806962807571 C 0.0 **** -0.24
11757 H 85.11933914614762 173.88575637176757 166.86049905673184 H 0.0 **** 0.06
11758 H 86.03833627825519 175.25701082813873 167.52747193882283 H 0.0 **** 0.06
11759 H 84.99339176457633 174.28397173922127 168.59065311640927 H 0.0 **** 0.06
11760 H 84.26769644941726 175.36166369082548 167.37425735264463 H 0.0 **** 0.06
11761 C 73.92771298418488 21.849703362729656 107.53343050365551 C 0.0 **** -0.24
11762 H 74.17060088306378 22.57643286066609 108.30865438656768 H 0.0 **** 0.06
11763 H 73.48085976457855 22.361694547611094 106.68164087494831 H 0.0 **** 0.06
11764 H 73.22289730745969 21.11839041610964 107.93007091898643 H 0.0 **** 0.06
11765 H 74.83801461622012 21.341617848038524 107.21484862022471 H 0.0 **** 0.06
11766 C 137.30942351069967 8.109087678574582 89.56093052140976 C 0.0 **** -0.24
11767 H 138.25690028928835 7.91577411320025 89.05799118020853 H 0.0 **** 0.06
11768 H 136.54295058951516 7.447457860850449 89.15824877244664 H 0.0 **** 0.06
11769 H 137.01701990640726 9.146123904431612 89.39793865947904 H 0.0 **** 0.06
11770 H 137.42192363063714 7.927331152784362 90.63036573835218 H 0.0 **** 0.06
11771 C 123.73567861506179 91.90078221477903 48.4345638019401 C 0.0 **** -0.24
11772 H 123.5306504482579 91.49591869077913 47.443829061330234 H 0.0 **** 0.06
11773 H 123.55764799474507 92.97613650149059 48.431627952137774 H 0.0 **** 0.06
11774 H 124.77410052740633 91.70442587527567 48.69897721064581 H 0.0 **** 0.06
11775 H 123.07846989973727 91.42563157784666 49.16307183050941 H 0.0 **** 0.06
11776 C 183.40219380867921 74.37591693925019 13.910488100190378 C 0.0 **** -0.24
11777 H 183.68080260538628 73.54065644841222 14.552514111111577 H 0.0 **** 0.06
11778 H 184.19340015804016 74.55283633830884 13.181544058331724 H 0.0 **** 0.06
11779 H 183.25975070285222 75.27005866954428 14.517434467249359 H 0.0 **** 0.06
11780 H 182.47417731060068 74.13937838562677 13.38943985975044 H 0.0 **** 0.06
11781 C 59.770930253399854 91.1570647089308 103.9729723414406 C 0.0 **** -0.24
11782 H 59.603917865911754 91.21358452739436 105.04776659640231 H 0.0 **** 0.06
11783 H 60.71510848220797 90.64778836509326 103.77753574297947 H 0.0 **** 0.06
11784 H 59.80808779618397 92.16379131478352 103.55761562250774 H 0.0 **** 0.06
11785 H 58.95578475242415 90.60240917333961 103.50760965893227 H 0.0 **** 0.06
11786 C 146.57110973455977 15.880844718011133 43.38855345910832 C 0.0 **** -0.24
11787 H 147.0127697180257 15.746018747125873 42.40140161155807 H 0.0 **** 0.06
11788 H 145.75713965366083 15.167702080589947 43.521822617401256 H 0.0 **** 0.06
11789 H 146.18409385443158 16.895204353454886 43.478784112152766 H 0.0 **** 0.06
11790 H 147.3303016163007 15.712018310671056 44.15243152600348 H 0.0 **** 0.06
11791 C 34.44375309286366 135.51840511274793 8.318124865046173 C 0.0 **** -0.24
11792 H 34.38073541480122 134.94879555649527 9.245516421118339 H 0.0 **** 0.06
11793 H 34.28587879836189 134.85078285501174 7.47121543286147 H 0.0 **** 0.06
11794 H 35.428928306418584 135.97877994771812 8.241065265852342 H 0.0 **** 0.06
11795 H 33.67928470718164 136.29599434067995 8.316554266871549 H 0.0 **** 0.06
11796 C 176.05699139916453 170.19449536294997 27.703953104325592 C 0.0 **** -0.24
11797 H 175.70874312313748 171.1198277908495 27.24402112796288 H 0.0 **** 0.06
11798 H 175.22265991893357 169.6994540130624 28.201366833942927 H 0.0 **** 0.06
11799 H 176.83348029792558 170.42310163558136 28.43471472946719 H 0.0 **** 0.06
11800 H 176.4640459884223 169.5379303064721 26.934432297755052 H 0.0 **** 0.06
11801 C 44.57812391013593 178.7240637136166 22.07875562619037 C 0.0 **** -0.24
11802 H 44.45951635823083 179.26006357251177 23.020088058174338 H 0.0 **** 0.06
11803 H 43.774755909679016 179.00588560594113 21.397857213371026 H 0.0 **** 0.06
11804 H 44.53748544131456 177.65103997115438 22.263976865013717 H 0.0 **** 0.06
11805 H 45.539183749884074 178.98002271426418 21.632992985836324 H 0.0 **** 0.06
11806 C 71.25339807471335 86.74986636032786 142.8748571198928 C 0.0 **** -0.24
11807 H 72.269130730494 86.88679362267352 142.50464981914126 H 0.0 **** 0.06
11808 H 71.22121703251787 85.88464529933451 143.5364515884167 H 0.0 **** 0.06
11809 H 70.57852360826047 86.5913042105782 142.03328069385395 H 0.0 **** 0.06
11810 H 70.944896846897 87.63984757243772 143.42459690483412 H 0.0 **** 0.06
11811 C 145.70804776144536 166.79868616483873 116.47464681985322 C 0.0 **** -0.24
11812 H 144.8245476559387 166.44465328324495 117.00509344804273 H 0.0 **** 0.06
11813 H 146.12773620357777 165.9835599545434 115.88347993636735 H 0.0 **** 0.06
11814 H 146.4492866802488 167.14454945784337 117.19491885509767 H 0.0 **** 0.06
11815 H 145.43099783351897 167.6206867870712 115.8146705510061 H 0.0 **** 0.06
11816 C 171.7527933762498 134.59058764720726 78.01696433720406 C 0.0 **** -0.24
11817 H 172.3667466561809 135.41846228257435 78.37056765000173 H 0.0 **** 0.06
11818 H 172.24130736781427 134.11241010789433 77.16696802782079 H 0.0 **** 0.06
11819 H 170.777092231913 134.96647834920145 77.71099082402885 H 0.0 **** 0.06
11820 H 171.62664779666667 133.86341285932048 78.81964142401492 H 0.0 **** 0.06
11821 C 60.278618763496866 176.49777182718216 140.72673784236116 C 0.0 **** -0.24
11822 H 59.82477525500488 175.5148944466488 140.85318342588164 H 0.0 **** 0.06
11823 H 60.4295569891687 176.69428575047698 139.66503717563916 H 0.0 **** 0.06
11824 H 61.238509180829624 176.52404969951476 141.24198847074211 H 0.0 **** 0.06
11825 H 59.61942048927892 177.25817439259353 141.1467830351121 H 0.0 **** 0.06
11826 C 95.58521793275243 138.5026662701543 60.17547952325563 C 0.0 **** -0.24
11827 H 94.79816506162548 138.61995024079448 59.43037240432622 H 0.0 **** 0.06
11828 H 96.34431099748836 139.26996939558347 60.02619464375951 H 0.0 **** 0.06
11829 H 96.03861327678895 137.5172009464398 60.072096238492264 H 0.0 **** 0.06
11830 H 95.15781929527547 138.60253490625183 61.173611299829645 H 0.0 **** 0.06
11831 C 138.91237847137074 85.87696722265464 58.390194035880256 C 0.0 **** -0.24
11832 H 138.21803714360414 85.75095717965466 59.22108871005446 H 0.0 **** 0.06
11833 H 139.44904141159714 84.94237041280127 58.22109908180613 H 0.0 **** 0.06
11834 H 139.62426317663676 86.66709389883972 58.62855166650786 H 0.0 **** 0.06
11835 H 138.35810673128583 86.14569985035503 57.49100719603831 H 0.0 **** 0.06
11836 C 98.61291626947384 184.15295189800818 24.14732810989119 C 0.0 **** -0.24
11837 H 99.36609665199096 184.40202409689925 24.895200242953138 H 0.0 **** 0.06
11838 H 97.63220865696458 184.4766174959135 24.496894324750997 H 0.0 **** 0.06
11839 H 98.60385329145412 183.07533622860143 23.985468044649906 H 0.0 **** 0.06
11840 H 98.85136281272828 184.6590700658046 23.21162408583359 H 0.0 **** 0.06
11841 C 117.56496315808789 34.42961110518377 147.2106240167308 C 0.0 **** -0.24
11842 H 118.25687157535708 34.41888091626062 148.0537954169259 H 0.0 **** 0.06
11843 H 118.0412031758213 33.96903376939518 146.34527881509413 H 0.0 **** 0.06
11844 H 117.2978447936261 35.4593600031716 146.9737351324684 H 0.0 **** 0.06
11845 H 116.66674808306271 33.87094837042399 147.4714265504757 H 0.0 **** 0.06
11846 C 4.827855560958547 177.17576746480637 1.9770440589807947 C 0.0 **** -0.24
11847 H 5.208090744529557 177.9936218157876 2.5891198949366725 H 0.0 **** 0.06
11848 H 4.258877166127107 176.48788905208926 2.6037052722419958 H 0.0 **** 0.06
11849 H 5.663373705676179 176.64580000734742 1.5199945202172884 H 0.0 **** 0.06
11850 H 4.180510423258681 177.57723753115235 1.196934169843793 H 0.0 **** 0.06
11851 C 126.32445283023306 154.86742669648112 60.758029425431104 C 0.0 **** -0.24
11852 H 125.47789216027952 154.29443327826073 61.1360624039892 H 0.0 **** 0.06
11853 H 127.23402927910458 154.27264094664042 60.84784582132279 H 0.0 **** 0.06
11854 H 126.43115158440371 155.78424054402808 61.33856205069209 H 0.0 **** 0.06
11855 H 126.15572209330473 155.11797024806307 59.711610683130374 H 0.0 **** 0.06
11856 C 67.47251292235842 24.924119994766215 136.4980893370174 C 0.0 **** -0.24
11857 H 66.56346011317294 24.601321164953845 137.00570560199736 H 0.0 **** 0.06
11858 H 67.63368990087861 24.305982965810898 135.61479948512198 H 0.0 **** 0.06
11859 H 68.3217904214655 24.82097202871836 137.17384639479502 H 0.0 **** 0.06
11860 H 67.36995105482163 25.966621885043992 136.19907896668826 H 0.0 **** 0.06
11861 C 138.20079581359863 114.25907492731902 171.39014367473894 C 0.0 **** -0.24
11862 H 138.33614297690008 113.73701376146205 170.44338888827144 H 0.0 **** 0.06
11863 H 137.50316767802985 115.08561005224301 171.25277537377517 H 0.0 **** 0.06
11864 H 139.1600328694883 114.64634254113649 171.7327650609252 H 0.0 **** 0.06
11865 H 137.80162591616516 113.56703262334044 172.13173871833243 H 0.0 **** 0.06
11866 C 16.759687477683002 15.79702263872423 171.61360802826462 C 0.0 **** -0.24
11867 H 17.74384812795782 15.878743996314718 172.07649444229264 H 0.0 **** 0.06
11868 H 16.031047594332 16.344649269855466 172.21087793597434 H 0.0 **** 0.06
11869 H 16.47003803393649 14.747256541056863 171.55973112593858 H 0.0 **** 0.06
11870 H 16.79668523895557 16.215982151952645 170.6081293115563 H 0.0 **** 0.06
11871 C 13.27991038277532 35.88551900860608 60.66775589254253 C 0.0 **** -0.24
11872 H 12.737735110175002 36.77361446086337 60.99537739927612 H 0.0 **** 0.06
11873 H 12.607721935149122 35.027236403772065 60.673326763600954 H 0.0 **** 0.06
11874 H 14.113127385047846 35.69939273394289 61.34522603522679 H 0.0 **** 0.06
11875 H 13.659550081776736 36.044228938969525 59.65850259660682 H 0.0 **** 0.06
11876 C 180.73448547834215 78.89078942138684 50.14391292494844 C 0.0 **** -0.24
11877 H 181.43711440831686 79.50058146202694 50.7112237737754 H 0.0 **** 0.06
11878 H 179.77791335283575 79.40885223016403 50.0724421714887 H 0.0 **** 0.06
11879 H 180.5927274024047 77.93461569913393 50.649806073855046 H 0.0 **** 0.06
11880 H 181.12966941158538 78.71714007620699 49.14310628877854 H 0.0 **** 0.06
11881 C 147.20101009270292 20.271132550457466 106.40830750112643 C 0.0 **** -0.24
11882 H 147.34459116433567 20.329544118309265 105.32977984419874 H 0.0 **** 0.06
11883 H 146.7873584682004 19.296501072466413 106.66765318382876 H 0.0 **** 0.06
11884 H 146.5120092943207 21.05372738780307 106.72666829361937 H 0.0 **** 0.06
11885 H 148.1591082416305 20.40403098344865 106.9103635698895 H 0.0 **** 0.06
11886 C 33.311162306953335 143.35824946670806 103.27405743027786 C 0.0 **** -0.24
11887 H 32.96947679632723 143.63125070016116 104.27283103801379 H 0.0 **** 0.06
11888 H 32.547044058954185 142.75807779712744 102.77981797455776 H 0.0 **** 0.06
11889 H 34.23335967986944 142.7820738682555 103.35068675370444 H 0.0 **** 0.06
11890 H 33.494797516084745 144.26290653763755 102.69470516340321 H 0.0 **** 0.06
11891 C 47.545275712196045 79.54311296206065 166.593296270514 C 0.0 **** -0.24
11892 H 47.31434250320321 78.89235759392209 167.43698974573314 H 0.0 **** 0.06
11893 H 46.81837491643789 80.35336206178815 166.55003012232285 H 0.0 **** 0.06
11894 H 47.50478870475665 78.96736445758485 165.66848881365112 H 0.0 **** 0.06
11895 H 48.54531759071061 79.95801156979144 166.7181231203278 H 0.0 **** 0.06
11896 C 140.30553644866728 163.35328753502557 139.659176849674 C 0.0 **** -0.24
11897 H 139.66657986858286 164.23586159497407 139.66114117099056 H 0.0 **** 0.06
11898 H 140.8302586668256 163.28255139957187 140.61258986960092 H 0.0 **** 0.06
11899 H 141.03163998138137 163.43110060122194 138.8492421740798 H 0.0 **** 0.06
11900 H 139.69470214317903 162.46230567365134 139.51413156442345 H 0.0 **** 0.06
11901 C 116.30099120581538 152.56374547529228 103.93695753556796 C 0.0 **** -0.24
11902 H 116.36502883072082 152.9669015150319 104.94847461177744 H 0.0 **** 0.06
11903 H 117.14848385623874 151.90225054888924 103.75658836073455 H 0.0 **** 0.06
11904 H 116.31885180012323 153.3837121132315 103.2184743455453 H 0.0 **** 0.06
11905 H 115.37194293868264 152.00444951565066 103.82683165620568 H 0.0 **** 0.06
11906 C 99.2000288752045 153.27605287459562 79.06619633646463 C 0.0 **** -0.24
11907 H 98.61104527610122 152.8882451424364 79.89709153788259 H 0.0 **** 0.06
11908 H 98.84502408925358 154.27281591942875 78.80360081481079 H 0.0 **** 0.06
11909 H 99.09486443332584 152.61476019238535 78.20701780227304 H 0.0 **** 0.06
11910 H 100.2486558773687 153.3286769317504 79.35835634972373 H 0.0 **** 0.06
11911 C 179.6291171746974 13.723151348340537 149.91494505697727 C 0.0 **** -0.24
11912 H 180.68902582111582 13.64915543294137 149.67192319581568 H 0.0 **** 0.06
11913 H 179.24416350074466 14.68442097696311 149.57204598233307 H 0.0 **** 0.06
11914 H 179.49852219565634 13.643548672017914 150.99375862152397 H 0.0 **** 0.06
11915 H 179.08608167057704 12.917238353807988 149.42244630472476 H 0.0 **** 0.06
11916 C 124.06836908875988 119.09929699708765 110.96115782948543 C 0.0 **** -0.24
11917 H 124.57623077558162 119.56444343807412 111.80631087494136 H 0.0 **** 0.06
11918 H 124.12757135682062 119.75705439924853 110.09461433460767 H 0.0 **** 0.06
11919 H 123.02245985728337 118.92672220726537 111.21576968184421 H 0.0 **** 0.06
11920 H 124.5468917825363 118.1478394092426 110.72872534960702 H 0.0 **** 0.06
11921 C 65.00108937063044 25.83599548956485 163.50867925727172 C 0.0 **** -0.24
11922 H 64.38997836191875 25.124996555890448 162.9526520856658 H 0.0 **** 0.06
11923 H 65.93226536470455 25.35616007604949 163.8104798784407 H 0.0 **** 0.06
11924 H 64.4582413388141 26.16466075535274 164.39516023946732 H 0.0 **** 0.06
11925 H 65.22283399170148 26.696297044562442 162.87708371960815 H 0.0 **** 0.06
11926 C 60.48364386688698 58.53710659485222 93.97568273411567 C 0.0 **** -0.24
11927 H 59.69095281545846 57.85938987298226 93.65746217317731 H 0.0 **** 0.06
11928 H 60.35818372802261 58.77182825551296 95.03301895117518 H 0.0 **** 0.06
11929 H 60.43436229577061 59.45477065994953 93.39009385316474 H 0.0 **** 0.06
11930 H 61.451837936402356 58.05912350545674 93.82281742987875 H 0.0 **** 0.06
11931 C 179.06479331768617 32.51797290313226 41.043065938087864 C 0.0 **** -0.24
11932 H 179.976193865913 32.1310509842032 41.49935405303768 H 0.0 **** 0.06
11933 H 178.68456172450408 31.793001531303332 40.32267726942348 H 0.0 **** 0.06
11934 H 179.2832824600208 33.45633779871713 40.53516325606677 H 0.0 **** 0.06
11935 H 178.31598433173826 32.68836218489656 41.816626510678645 H 0.0 **** 0.06
11936 C 60.204769293839874 5.38069753317798 102.26522378002188 C 0.0 **** -0.24
11937 H 60.099731004743816 4.741369097835694 101.388534280174 H 0.0 **** 0.06
11938 H 59.32199608098939 5.2783895760406665 102.89674172226619 H 0.0 **** 0.06
11939 H 60.30708806908781 6.418242764289303 101.94826462129514 H 0.0 **** 0.06
11940 H 61.09077033723155 5.083473482857656 102.82724549275618 H 0.0 **** 0.06
11941 C 150.226225762396 12.38135686933601 4.10570476262339 C 0.0 **** -0.24
11942 H 150.37807279535645 13.38560990554695 4.5013658318986245 H 0.0 **** 0.06
11943 H 151.12675042313464 11.787876372655042 4.267790023016033 H 0.0 **** 0.06
11944 H 150.0168684232523 12.439996898841628 3.0379603193894695 H 0.0 **** 0.06
11945 H 149.38578965543812 11.913334232833613 4.616351682258625 H 0.0 **** 0.06
11946 C 15.07540637091168 21.975640939363302 164.22736903258794 C 0.0 **** -0.24
11947 H 14.135805472539857 21.423765898316674 164.26158110707124 H 0.0 **** 0.06
11948 H 14.866084774922285 23.045266095055467 164.20091394570392 H 0.0 **** 0.06
11949 H 15.631066999100085 21.690400546758895 163.33445048580944 H 0.0 **** 0.06
11950 H 15.666142243161005 21.741346134162086 165.11318867987723 H 0.0 **** 0.06
11951 C 114.39851940819825 152.31161416091575 63.807308213123676 C 0.0 **** -0.24
11952 H 115.4502729209649 152.38006022185385 63.528532209283966 H 0.0 **** 0.06
11953 H 114.17562671904572 151.29472781593813 64.13366603329762 H 0.0 **** 0.06
11954 H 113.77791409553605 152.5618741079822 62.94719929279924 H 0.0 **** 0.06
11955 H 114.19241796944301 153.0074811391807 64.61974262617876 H 0.0 **** 0.06
11956 C 33.76426937804398 34.681383387209905 25.444148829787693 C 0.0 **** -0.24
11957 H 33.94328401960206 34.505859169644594 24.383173627065617 H 0.0 **** 0.06
11958 H 34.71749725587074 34.78577130331877 25.96139742961573 H 0.0 **** 0.06
11959 H 33.21363829300756 33.83894488037157 25.86351877396345 H 0.0 **** 0.06
11960 H 33.18092787382133 35.59407424506054 25.567398414245787 H 0.0 **** 0.06
11961 C 114.57539940335619 149.85643771557605 132.02128432755893 C 0.0 **** -0.24
11962 H 114.42813508146361 149.43573335485706 133.01610311988009 H 0.0 **** 0.06
11963 H 114.85126227876049 150.9074441347375 132.10951444654523 H 0.0 **** 0.06
11964 H 113.65058802575521 149.77050349213098 131.45042217322202 H 0.0 **** 0.06
11965 H 115.36995677353451 149.31335463527458 131.5112444520836 H 0.0 **** 0.06
11966 C 140.84787483112382 157.57890715090443 120.89489733797474 C 0.0 **** -0.24
11967 H 140.5752301159519 158.63176899736615 120.97288564076207 H 0.0 **** 0.06
11968 H 141.536997092405 157.44374779413528 120.06178402090048 H 0.0 **** 0.06
11969 H 139.95110050231688 156.98336707450426 120.72602411266338 H 0.0 **** 0.06
11970 H 141.3276807023072 157.25848958757237 121.82020501564953 H 0.0 **** 0.06
11971 C 64.5287810923886 59.46815881694803 78.48173071835002 C 0.0 **** -0.24
11972 H 64.71026251300925 60.50111657878644 78.77970577582875 H 0.0 **** 0.06
11973 H 64.97367644669012 58.79584930659527 79.21475622157664 H 0.0 **** 0.06
11974 H 64.97734411032346 59.28898108697871 77.50409993564016 H 0.0 **** 0.06
11975 H 63.45529755090534 59.2898899321154 78.4275677343436 H 0.0 **** 0.06
11976 C 81.17271261142716 101.62683606704478 170.2568479038013 C 0.0 **** -0.24
11977 H 80.46097687885744 101.43035361262973 169.45498428902326 H 0.0 **** 0.06
11978 H 81.3335313465856 102.70193627506218 170.34414206483302 H 0.0 **** 0.06
11979 H 82.1190662490348 101.13583896292762 170.030783772832 H 0.0 **** 0.06
11980 H 80.77770992187065 101.24043562434296 171.19691330573187 H 0.0 **** 0.06
11981 C 139.74457045363948 141.0773523644176 152.94139222414213 C 0.0 **** -0.24
11982 H 140.2842732315254 142.00997261155237 152.77337205044927 H 0.0 **** 0.06
11983 H 138.94713544270047 141.24455830471663 153.6654156625032 H 0.0 **** 0.06
11984 H 140.43284492181442 140.32459135620257 153.32630584400084 H 0.0 **** 0.06
11985 H 139.31616488779406 140.73023564106808 152.00167205841967 H 0.0 **** 0.06
11986 C 2.260598315215475 29.442582195931948 61.739887731955506 C 0.0 **** -0.24
11987 H 2.986302989858416 28.630001666488113 61.69722641793297 H 0.0 **** 0.06
11988 H 2.0334141477048036 29.780102608019433 60.728635691070494 H 0.0 **** 0.06
11989 H 2.6749904390308927 30.270266905447727 62.31454460842045 H 0.0 **** 0.06
11990 H 1.3468870731670393 29.08848621548134 62.21870001342431 H 0.0 **** 0.06
11991 C 171.79039974101525 87.0206086051309 100.0891028931649 C 0.0 **** -0.24
11992 H 170.92341881291912 87.66586684272441 99.94983256875086 H 0.0 **** 0.06
11993 H 172.40281391309804 87.40696600383397 100.90366731603446 H 0.0 **** 0.06
11994 H 172.37786260046968 86.99734072422517 99.17105313047223 H 0.0 **** 0.06
11995 H 171.45546280699563 86.01153360845875 100.33241195982679 H 0.0 **** 0.06
11996 C 130.2616216128925 148.0761349488399 23.81576099712163 C 0.0 **** -0.24
11997 H 130.80235305571858 148.0062768720347 22.87145398088046 H 0.0 **** 0.06
11998 H 129.9455866924153 149.10660786802777 23.976900208980908 H 0.0 **** 0.06
11999 H 130.91292989117494 147.76272560680633 24.631547409161612 H 0.0 **** 0.06
12000 H 129.38576513135706 147.42749205840553 23.781435920956937 H 0.0 **** 0.06
12001 C 160.7023008374909 171.05282552260525 137.92802709161833 C 0.0 **** -0.24
12002 H 160.44661416182595 171.82280113855006 138.65536897633018 H 0.0 **** 0.06
12003 H 161.406188386873 170.35007426590278 138.37576182759886 H 0.0 **** 0.06
12004 H 161.15681635229353 171.5161361403372 137.0527755495707 H 0.0 **** 0.06
12005 H 159.79807612923761 170.5209274836838 137.62956846165577 H 0.0 **** 0.06
12006 C 34.50909754195851 67.28894847075571 118.74264786743787 C 0.0 **** -0.24
12007 H 33.979470986878425 68.17866380832959 118.40222799356353 H 0.0 **** 0.06
12008 H 34.70134374280909 67.37003047527674 119.81299944369566 H 0.0 **** 0.06
12009 H 35.45496652606022 67.20239535284236 118.20927956146623 H 0.0 **** 0.06
12010 H 33.89948468587525 66.40645387659703 118.54824667653081 H 0.0 **** 0.06
12011 C 34.06166336191011 159.79522503581595 21.045427087054463 C 0.0 **** -0.24
12012 H 34.1225918885859 160.87467164010292 21.182376332153268 H 0.0 **** 0.06
12013 H 33.01785855091104 159.50050306554766 20.940828707877188 H 0.0 **** 0.06
12014 H 34.49560393382143 159.2950552797174 21.911860688106003 H 0.0 **** 0.06
12015 H 34.611607892513575 159.51113882668392 20.14858240331631 H 0.0 **** 0.06
12016 C 7.7895335088771915 29.818720952080014 1.746322828856023 C 0.0 **** -0.24
12017 H 8.231486108425521 30.80763355679443 1.8684830738955611 H 0.0 **** 0.06
12018 H 7.03523159490949 29.852607172569947 0.9599573162190609 H 0.0 **** 0.06
12019 H 7.324287758769792 29.510933923662037 2.6827916760729806 H 0.0 **** 0.06
12020 H 8.56627397198924 29.10495524944409 1.4749059959135593 H 0.0 **** 0.06
12021 C 114.67148061547165 55.73616750036791 184.55218079714794 C 0.0 **** -0.24
12022 H 115.00225350336628 56.6718581103745 185.00348197653653 H 0.0 **** 0.06
12023 H 115.24508201708078 54.90908150603917 184.97177653019185 H 0.0 **** 0.06
12024 H 114.82804452201212 55.77808805477429 183.47437387128448 H 0.0 **** 0.06
12025 H 113.61191375340628 55.58680833307983 184.75996257858594 H 0.0 **** 0.06
12026 C 126.0029045069124 14.845915458945036 73.4070571881715 C 0.0 **** -0.24
12027 H 126.96627714723685 14.409551254299437 73.14341576945895 H 0.0 **** 0.06
12028 H 125.91447013458482 14.902308503520509 74.49212426268502 H 0.0 **** 0.06
12029 H 125.20161201295839 14.223470736039516 73.00938866031822 H 0.0 **** 0.06
12030 H 125.9291074829877 15.847451430823838 72.98284961083749 H 0.0 **** 0.06
12031 C 79.02833928433546 54.897707016362915 5.800785138342775 C 0.0 **** -0.24
12032 H 80.01071628166085 55.36851111793612 5.822493980027161 H 0.0 **** 0.06
12033 H 79.04440971810902 54.05389336091838 5.110232718190986 H 0.0 **** 0.06
12034 H 78.2849469795716 55.623335394949265 5.471237429455726 H 0.0 **** 0.06
12035 H 78.77282182208307 54.54465222514523 6.800439844922209 H 0.0 **** 0.06
12036 C 11.67337412951548 95.90355522154177 148.46688922995122 C 0.0 **** -0.24
12037 H 11.538108022697031 96.02176007446285 147.39200409884353 H 0.0 **** 0.06
12038 H 12.014254836822289 96.84617411071018 148.89595024451458 H 0.0 **** 0.06
12039 H 12.415362235500936 95.12844300836916 148.65700250045492 H 0.0 **** 0.06
12040 H 10.72466824465289 95.61869261917663 148.92235033496326 H 0.0 **** 0.06
12041 C 69.34126226894118 135.23528798809343 148.4103471369506 C 0.0 **** -0.24
12042 H 69.5369265353746 134.31773734168559 147.85695249657215 H 0.0 **** 0.06
12043 H 69.87991206578806 136.06182083103295 147.946718812954 H 0.0 **** 0.06
12044 H 69.67443906452584 135.11542236135415 149.44088718952946 H 0.0 **** 0.06
12045 H 68.2719352668682 135.44582830184464 148.397544855068 H 0.0 **** 0.06
12046 C 115.43117196503249 91.20279511746288 17.403487520709348 C 0.0 **** -0.24
12047 H 115.92673758701665 92.11760960941827 17.728140438626156 H 0.0 **** 0.06
12048 H 115.69784911524448 90.9924280627384 16.36809564035957 H 0.0 **** 0.06
12049 H 114.35099355232825 91.32854423288349 17.482437745191646 H 0.0 **** 0.06
12050 H 115.74716253597893 90.37326632030577 18.036607031101198 H 0.0 **** 0.06
12051 C 159.77107189986182 67.74684718962283 22.985139197167058 C 0.0 **** -0.24
12052 H 159.84138619715037 67.13545126680214 23.883868994103608 H 0.0 **** 0.06
12053 H 160.58335655129198 67.489340541871 22.305581745587034 H 0.0 **** 0.06
12054 H 159.84503667238891 68.79997142369399 23.25627555055769 H 0.0 **** 0.06
12055 H 158.81442319234034 67.56435510827976 22.4947931213528 H 0.0 **** 0.06
12056 C 172.07585442733836 95.21475129632545 139.5005913912973 C 0.0 **** -0.24
12057 H 172.54982116612024 95.55043623012854 140.4227163869632 H 0.0 **** 0.06
12058 H 172.5844343974216 94.32316891127361 139.1342983132127 H 0.0 **** 0.06
12059 H 172.14078384944455 96.00428552722708 138.751038014988 H 0.0 **** 0.06
12060 H 171.02883252993215 94.98189788667294 139.69388855292914 H 0.0 **** 0.06
12061 C 126.85149043801134 23.18352504177868 95.62251971689288 C 0.0 **** -0.24
12062 H 127.06048384430461 23.81058733932575 94.75600140469207 H 0.0 **** 0.06
12063 H 127.49526339871913 22.302971451696692 95.59706050026038 H 0.0 **** 0.06
12064 H 125.80716167106296 22.871468163110336 95.60158403960908 H 0.0 **** 0.06
12065 H 127.04442000464145 23.749313405956812 96.53439695160988 H 0.0 **** 0.06
12066 C 44.85427265389353 112.07545804044666 8.95773553006427 C 0.0 **** -0.24
12067 H 44.37041863126095 112.88060404419927 9.51154107779837 H 0.0 **** 0.06
12068 H 44.131181614849936 111.61042861205347 8.287755425623686 H 0.0 **** 0.06
12069 H 45.23471916609526 111.33087523178217 9.656456674110984 H 0.0 **** 0.06
12070 H 45.68066232266966 112.4821282723225 8.374827475066184 H 0.0 **** 0.06
12071 C 117.68596906918147 33.34187032996891 42.2149284051975 C 0.0 **** -0.24
12072 H 117.69383943131926 33.13355503111245 43.28403883736161 H 0.0 **** 0.06
12073 H 118.40024187377757 34.135317545517495 41.99393236027669 H 0.0 **** 0.06
12074 H 116.68662047139001 33.65639886687177 41.91300033478797 H 0.0 **** 0.06
12075 H 117.96351429476049 32.4403460329421 41.6671894210989 H 0.0 **** 0.06
12076 C 72.37092644784354 175.58498624124397 79.29088651906903 C 0.0 **** -0.24
12077 H 71.67936290371506 176.42630227513547 79.2533692776143 H 0.0 **** 0.06
12078 H 72.13006503248619 174.95466420273186 80.14789836920988 H 0.0 **** 0.06
12079 H 73.39066971142137 175.95678016759908 79.38664817920932 H 0.0 **** 0.06
12080 H 72.28187052023264 175.00091349818234 78.37447697362643 H 0.0 **** 0.06
12081 C 97.38711684098587 123.94204676495393 100.61806091052178 C 0.0 **** -0.24
12082 H 97.48720863819369 124.65309159246344 101.4379921536114 H 0.0 **** 0.06
12083 H 98.16825466530997 123.18410002884103 100.69730028172118 H 0.0 **** 0.06
12084 H 97.48617533444144 124.46702522404037 99.66729099769536 H 0.0 **** 0.06
12085 H 96.4089853565456 123.46380225724393 100.6690937652156 H 0.0 **** 0.06
12086 C 9.229721092967623 155.3157796866597 103.63112702969318 C 0.0 **** -0.24
12087 H 9.775403607263797 156.23301125997654 103.85388297817963 H 0.0 **** 0.06
12088 H 8.158370592094968 155.51489697373484 103.65275499026848 H 0.0 **** 0.06
12089 H 9.47380734528599 154.55752306202703 104.37540128363372 H 0.0 **** 0.06
12090 H 9.512608531007402 154.95709888562817 102.64048168857994 H 0.0 **** 0.06
12091 C 16.262293096654716 71.40305990534092 50.11523112913352 C 0.0 **** -0.24
12092 H 15.82917440701177 72.1896188143911 49.497243549719784 H 0.0 **** 0.06
12093 H 16.257760725548728 71.71765265259572 51.15946015399861 H 0.0 **** 0.06
12094 H 17.28733887106104 71.21489424133375 49.79722297588613 H 0.0 **** 0.06
12095 H 15.674634555863982 70.49110856751363 50.00792516362516 H 0.0 **** 0.06
12096 C 171.13603446683794 28.839488142065534 156.4592444627292 C 0.0 **** -0.24
12097 H 170.81713589060143 27.915344228388562 155.97826622745225 H 0.0 **** 0.06
12098 H 172.11913307776513 28.696069210825982 156.90716240633606 H 0.0 **** 0.06
12099 H 170.41943113299783 29.10998785546542 157.23540614388583 H 0.0 **** 0.06
12100 H 171.18678904109402 29.636149921522986 155.7179096436608 H 0.0 **** 0.06
12101 C 119.51012376765806 5.259920934858286 166.6683762838913 C 0.0 **** -0.24
12102 H 120.22605354634157 5.211489382785821 165.84835842987357 H 0.0 **** 0.06
12103 H 119.9830905757558 4.90359591147714 167.58437971158241 H 0.0 **** 0.06
12104 H 118.648703889692 4.633347417983131 166.4365686228375 H 0.0 **** 0.06
12105 H 119.18468857646718 6.2906754413761305 166.8049062062371 H 0.0 **** 0.06
12106 C 139.52257236636427 52.18846305199719 38.82501506270876 C 0.0 **** -0.24
12107 H 138.83345659497758 52.562122051717324 39.58230217199605 H 0.0 **** 0.06
12108 H 139.67509004604267 51.117493873523216 38.96910812629568 H 0.0 **** 0.06
12109 H 140.47798124363305 52.706854858476675 38.91483272543927 H 0.0 **** 0.06
12110 H 139.1045463368016 52.36624037373031 37.83410395191373 H 0.0 **** 0.06
12111 C 158.0554960438456 77.15819269097823 74.48173392249875 C 0.0 **** -0.24
12112 H 158.58531478158113 78.09159799617191 74.29010663125945 H 0.0 **** 0.06
12113 H 157.2767569032587 77.3298815446599 75.22651020668201 H 0.0 **** 0.06
12114 H 158.7561811941895 76.41142761088234 74.85445980652982 H 0.0 **** 0.06
12115 H 157.60216827614863 76.8019898073197 73.55728610003641 H 0.0 **** 0.06
12116 C 172.19835991006906 102.57826491673829 134.9519987995667 C 0.0 **** -0.24
12117 H 171.17488209899315 102.93889258858594 134.84984101416472 H 0.0 **** 0.06
12118 H 172.7124673392788 103.15597699024495 135.72031232999296 H 0.0 **** 0.06
12119 H 172.7191787649841 102.69177819712745 134.00134438638185 H 0.0 **** 0.06
12120 H 172.1857566593819 101.52648986759117 135.2356847822487 H 0.0 **** 0.06
12121 C 76.77547503433883 59.26005689118496 59.32138665051825 C 0.0 **** -0.24
12122 H 75.77907836653958 58.938091905618776 59.02165752733379 H 0.0 **** 0.06
12123 H 77.4083904395313 59.35191390156908 58.438076528724025 H 0.0 **** 0.06
12124 H 77.20560974371536 58.52533386202846 60.002615382529015 H 0.0 **** 0.06
12125 H 76.7091876716281 60.225750666305316 59.82284840317456 H 0.0 **** 0.06
12126 C 19.0932942217307 181.57542385913035 23.44467529455261 C 0.0 **** -0.24
12127 H 18.844521090060624 182.60373481894612 23.182885577871048 H 0.0 **** 0.06
12128 H 20.13481330546975 181.52335594735501 23.763732221868054 H 0.0 **** 0.06
12129 H 18.946712226011527 180.93445428169514 22.57544858238191 H 0.0 **** 0.06
12130 H 18.447661786555102 181.2409040985682 24.25624823286398 H 0.0 **** 0.06
12131 C 138.97720188887877 128.1784232618965 62.15970357968466 C 0.0 **** -0.24
12132 H 140.00602554231733 128.38606541420273 61.86876210116833 H 0.0 **** 0.06
12133 H 138.73671757276225 128.73406644289685 63.067558952722294 H 0.0 **** 0.06
12134 H 138.8610523203052 127.11078719444066 62.34600942247488 H 0.0 **** 0.06
12135 H 138.30381244611243 128.48266469121035 61.35836771027691 H 0.0 **** 0.06
12136 C 140.24250114957425 182.01259257720815 20.329088075477202 C 0.0 **** -0.24
12137 H 140.3253446522429 180.95093738980825 20.564053194333646 H 0.0 **** 0.06
12138 H 139.38784937760147 182.17389972454308 19.672689037914367 H 0.0 **** 0.06
12139 H 141.1530096623918 182.34530920902546 19.830677346115195 H 0.0 **** 0.06
12140 H 140.10543885714958 182.578650111842 21.250892381809848 H 0.0 **** 0.06
12141 C 96.22456372470704 151.0230657555837 159.13029010616265 C 0.0 **** -0.24
12142 H 96.12404849438475 151.1850775105701 160.20338061367536 H 0.0 **** 0.06
12143 H 97.2326552493614 150.67310469950013 158.90842957239227 H 0.0 **** 0.06
12144 H 96.03985309629827 151.95931137205136 158.6031530237774 H 0.0 **** 0.06
12145 H 95.49976108210963 150.27590256537337 158.80717920107045 H 0.0 **** 0.06
12146 C 53.630002901242776 165.68718936768028 24.549040945629187 C 0.0 **** -0.24
12147 H 53.19902353304211 165.54798705031283 23.557610231411914 H 0.0 **** 0.06
12148 H 52.85778906529207 166.03608217955104 25.235348445405208 H 0.0 **** 0.06
12149 H 54.431066547222514 166.42436876366935 24.496667947458818 H 0.0 **** 0.06
12150 H 54.0320035675761 164.7383248167418 24.906467764732 H 0.0 **** 0.06
12151 C 88.85449832900876 160.36601771817695 29.798489562684807 C 0.0 **** -0.24
12152 H 89.70224749597075 160.41128314981253 29.114079758841626 H 0.0 **** 0.06
12153 H 88.58106982006653 161.37637701085328 30.10478900066593 H 0.0 **** 0.06
12154 H 89.12769286899159 159.78074049722866 30.6764495154286 H 0.0 **** 0.06
12155 H 88.00796507963373 159.89646363509226 29.297088731137137 H 0.0 **** 0.06
12156 C 128.44437344351553 155.19959732269987 125.86175641113452 C 0.0 **** -0.24
12157 H 128.12182229873963 156.17990969202637 126.21113265014539 H 0.0 **** 0.06
12158 H 127.87671118910174 154.42490735507462 126.37903334675546 H 0.0 **** 0.06
12159 H 129.50675850681932 155.07111535976003 126.06917802993793 H 0.0 **** 0.06
12160 H 128.27049060001423 155.1215959543335 124.78883521593845 H 0.0 **** 0.06
12161 C 103.38668588748952 101.48835012943 160.80716285598947 C 0.0 **** -0.24
12162 H 103.52114933701183 100.40884561799648 160.87040790847553 H 0.0 **** 0.06
12163 H 102.87827821268023 101.73665659794902 159.87490702998554 H 0.0 **** 0.06
12164 H 104.36071449826868 101.97730949391264 160.83087730823152 H 0.0 **** 0.06
12165 H 102.78812155675139 101.83079689159338 161.65054965298012 H 0.0 **** 0.06
12166 C 27.57854380008098 48.268757234710506 177.2800428593656 C 0.0 **** -0.24
12167 H 28.022030566119042 49.25594229051035 177.4111631275274 H 0.0 **** 0.06
12168 H 26.973541080499274 48.25930121958277 176.37318638434223 H 0.0 **** 0.06
12169 H 26.95074532967587 48.035231807601406 178.13968366076784 H 0.0 **** 0.06
12170 H 28.37073030056564 47.52380448895116 177.19570214585121 H 0.0 **** 0.06
12171 C 48.25204635396449 55.2931578761731 91.56562410251031 C 0.0 **** -0.24
12172 H 47.39624214513299 54.73086135409474 91.19042659251845 H 0.0 **** 0.06
12173 H 48.84414384882564 54.65684544840633 92.2231911396032 H 0.0 **** 0.06
12174 H 47.898923560034746 56.16207924239444 92.12004478236135 H 0.0 **** 0.06
12175 H 48.86587660567568 55.62225895236827 90.72754519729524 H 0.0 **** 0.06
12176 C 111.86578556604495 8.8230974836639 91.15963014312383 C 0.0 **** -0.24
12177 H 112.37862394546805 8.877365639204214 92.11986038861012 H 0.0 **** 0.06
12178 H 112.37669055098915 9.459964937514883 90.43793125143252 H 0.0 **** 0.06
12179 H 110.835974276497 9.160461593579612 91.27834213198783 H 0.0 **** 0.06
12180 H 111.87186225954206 7.792670180179698 90.8029201307716 H 0.0 **** 0.06
12181 C 51.23549889241366 54.09273247816395 70.46671628661562 C 0.0 **** -0.24
12182 H 51.288711077588005 55.06693222396302 70.95239382766611 H 0.0 **** 0.06
12183 H 51.93654068247929 54.064723639139515 69.63143051376751 H 0.0 **** 0.06
12184 H 50.22358067885125 53.92567262025432 70.09818014676138 H 0.0 **** 0.06
12185 H 51.49379952756669 53.314862349775694 71.18493226870511 H 0.0 **** 0.06
12186 C 86.0413905004716 172.69265617327824 13.717667903897834 C 0.0 **** -0.24
12187 H 85.13524801715351 173.29930465950295 13.700880725826366 H 0.0 **** 0.06
12188 H 86.02029648056316 172.0341504941534 14.586156638522041 H 0.0 **** 0.06
12189 H 86.91348731372443 173.34344078062207 13.77552885408906 H 0.0 **** 0.06
12190 H 86.09307411682863 172.0939523946484 12.808181808933881 H 0.0 **** 0.06
12191 C 177.67751945269688 0.5169721041210522 70.24677344508191 C 0.0 **** -0.24
12192 H 178.28382481452928 -0.09842633912044363 70.9114071234615 H 0.0 **** 0.06
12193 H 176.69437387552716 0.6697562986718921 70.69040853533966 H 0.0 **** 0.06
12194 H 177.56950919300465 0.014171389246307342 69.28568261179241 H 0.0 **** 0.06
12195 H 178.16431333990576 1.481352635548859 70.09998694661212 H 0.0 **** 0.06
12196 C 175.52429065667297 19.228031012777706 122.42222176714274 C 0.0 **** -0.24
12197 H 176.51541549114722 18.891824702715667 122.11928246811847 H 0.0 **** 0.06
12198 H 175.21552799625496 20.06281567907007 121.79279063458775 H 0.0 **** 0.06
12199 H 175.55292895129034 19.550638483203556 123.4636225851224 H 0.0 **** 0.06
12200 H 174.81451037075666 18.408632860585584 122.31526878212019 H 0.0 **** 0.06
12201 C 132.73680806757608 134.79920505318086 175.31877750570376 C 0.0 **** -0.24
12202 H 132.32540694410454 133.79285131925178 175.40020633394278 H 0.0 **** 0.06
12203 H 132.79914570237543 135.24679491345825 176.31129739444563 H 0.0 **** 0.06
12204 H 132.08907189462656 135.4062197215822 174.68551655695597 H 0.0 **** 0.06
12205 H 133.73321228261307 134.75003828637773 174.87815786904014 H 0.0 **** 0.06
12206 C 25.326492223887726 16.903785971713944 2.6719502572672127 C 0.0 **** -0.24
12207 H 25.506453890458147 16.263722593158718 1.807892940263315 H 0.0 **** 0.06
12208 H 24.31950233628652 16.726118237449953 3.051692205986342 H 0.0 **** 0.06
12209 H 25.42470349395029 17.947975615263488 2.377257423444064 H 0.0 **** 0.06
12210 H 26.053905398169377 16.675601409223532 3.450734073654246 H 0.0 **** 0.06
12211 C 132.90700387979848 156.41963959400195 101.65717109809002 C 0.0 **** -0.24
12212 H 132.53697469978374 155.83580770242105 100.81450088626032 H 0.0 **** 0.06
12213 H 133.99710345483538 156.41515989884002 101.65029948729979 H 0.0 **** 0.06
12214 H 132.54737272252618 155.98063152540982 102.58790613841803 H 0.0 **** 0.06
12215 H 132.54646554036208 157.4441810267136 101.57545648261483 H 0.0 **** 0.06
12216 C 119.78557668620421 61.68152876743551 45.36319883063835 C 0.0 **** -0.24
12217 H 119.48420431573341 62.59355185408964 44.84839893233682 H 0.0 **** 0.06
12218 H 120.44213322173785 61.93465099304245 46.19529317826283 H 0.0 **** 0.06
12219 H 120.31419488565062 61.02972580497371 44.66755088574135 H 0.0 **** 0.06
12220 H 118.90067918145702 61.16775738034559 45.74076705919293 H 0.0 **** 0.06
12221 C 131.37227847079032 69.88831561414518 38.91630884183637 C 0.0 **** -0.24
12222 H 132.1597465499998 69.19773391344718 38.61387486336257 H 0.0 **** 0.06
12223 H 130.43138020195607 69.34588237220906 39.0117970730394 H 0.0 **** 0.06
12224 H 131.26616594913077 70.67039394873261 38.16438798215994 H 0.0 **** 0.06
12225 H 131.6318583572106 70.33818403532088 39.87424935794155 H 0.0 **** 0.06
12226 C 166.85041618686003 79.44615806781175 185.2831472435254 C 0.0 **** -0.24
12227 H 167.59537816776387 78.67160982921133 185.1006944049722 H 0.0 **** 0.06
12228 H 166.70698495211872 80.03354409420663 184.3763713651644 H 0.0 **** 0.06
12229 H 167.19276529111048 80.09666449358203 186.08841419412448 H 0.0 **** 0.06
12230 H 165.90689064001057 78.9825529730819 185.56930139064167 H 0.0 **** 0.06
12231 C 53.122186680939194 173.4697566246055 110.60935226650746 C 0.0 **** -0.24
12232 H 54.1262168081476 173.13150510593198 110.34955075844611 H 0.0 **** 0.06
12233 H 53.002210767730105 173.45148991886174 111.69297604455234 H 0.0 **** 0.06
12234 H 52.387272823795314 172.80775496234912 110.1505257155538 H 0.0 **** 0.06
12235 H 52.975815485334465 174.48614171983485 110.243476358434 H 0.0 **** 0.06
12236 C 139.3993714653812 68.98708239314294 152.45181284419198 C 0.0 **** -0.24
12237 H 139.20296738751654 69.9823764480945 152.05346683916144 H 0.0 **** 0.06
12238 H 140.4758420923166 68.84104260301116 152.54812361283007 H 0.0 **** 0.06
12239 H 138.99007361186932 68.23725963883307 151.7746337887756 H 0.0 **** 0.06
12240 H 138.93017671331467 68.88891693610034 153.43006800406243 H 0.0 **** 0.06
12241 C 111.54275932934819 20.20067461290843 47.11713309657364 C 0.0 **** -0.24
12242 H 111.144495961559 19.688796583924592 46.240423016217534 H 0.0 **** 0.06
12243 H 112.23149473073657 19.538598880454124 47.641214785158894 H 0.0 **** 0.06
12244 H 110.72200918920426 20.472942657229694 47.78107714134583 H 0.0 **** 0.06
12245 H 112.07038137748249 21.101480848123728 46.803333050021195 H 0.0 **** 0.06
12246 C 171.2749783074234 144.24940828216396 130.43474428230496 C 0.0 **** -0.24
12247 H 170.19089281605864 144.21932290418187 130.32333112343628 H 0.0 **** 0.06
12248 H 171.56759828347117 143.65780367067026 131.30194315539262 H 0.0 **** 0.06
12249 H 171.59635056245236 145.28236047676836 130.5731929500808 H 0.0 **** 0.06
12250 H 171.74397135507536 143.84014439788473 129.53961749108333 H 0.0 **** 0.06
12251 C 78.34730486133651 179.10428397386866 184.8715206859362 C 0.0 **** -0.24
12252 H 78.78484045612117 178.10664863248616 184.9120262211032 H 0.0 **** 0.06
12253 H 79.1282541647663 179.8334281971779 184.65162913452062 H 0.0 **** 0.06
12254 H 77.8899771956664 179.33930368055258 185.83240959560806 H 0.0 **** 0.06
12255 H 77.5882915259474 179.13716541854336 184.08978164036418 H 0.0 **** 0.06
12256 C 97.05277983694499 36.313911066738115 177.01290059007727 C 0.0 **** -0.24
12257 H 97.56320256315452 37.26370586594771 176.85263565714064 H 0.0 **** 0.06
12258 H 97.72785175743225 35.49280721830473 176.7716605930217 H 0.0 **** 0.06
12259 H 96.1731483386087 36.261211758393756 176.37182059609626 H 0.0 **** 0.06
12260 H 96.74669864367105 36.23830130885051 178.0568296383156 H 0.0 **** 0.06
12261 C 180.0543192146718 94.65351035465231 73.2355504643428 C 0.0 **** -0.24
12262 H 180.77117093781933 94.88920379167614 72.44888752632733 H 0.0 **** 0.06
12263 H 179.49499192862064 95.55206897951093 73.49782088048437 H 0.0 **** 0.06
12264 H 180.5857666736777 94.28756420313819 74.11447673802599 H 0.0 **** 0.06
12265 H 179.36556451450394 93.88607727599948 72.88249693713391 H 0.0 **** 0.06
12266 C 164.91860773914166 99.60800476064067 59.32960361932777 C 0.0 **** -0.24
12267 H 165.76801617096132 99.65088113432152 58.64762685744603 H 0.0 **** 0.06
12268 H 164.28377474015304 100.47950500509607 59.17407639908993 H 0.0 **** 0.06
12269 H 165.2807356963168 99.59999268527683 60.35848143239866 H 0.0 **** 0.06
12270 H 164.34526141708136 98.7007010932778 59.13958937868995 H 0.0 **** 0.06
12271 C 142.14054917409362 78.04733197312159 12.016229898792837 C 0.0 **** -0.24
12272 H 142.7254502556821 78.87658825223095 11.619304096732904 H 0.0 **** 0.06
12273 H 141.2796695123041 77.8693478097034 11.372174624543838 H 0.0 **** 0.06
12274 H 141.7985263326259 78.29292819999637 13.021774149559505 H 0.0 **** 0.06
12275 H 142.75995893547167 77.15056687762073 12.051589466732416 H 0.0 **** 0.06
12276 C 83.27597960003533 181.82865422838998 7.790598792908213 C 0.0 **** -0.24
12277 H 82.39164237446857 181.34235216367614 7.3780053450744845 H 0.0 **** 0.06
12278 H 83.22774907709186 182.89950291346173 7.592759778634559 H 0.0 **** 0.06
12279 H 84.17004128917131 181.41238859592272 7.326000050233574 H 0.0 **** 0.06
12280 H 83.31309211345763 181.65908058731625 8.8668077926651 H 0.0 **** 0.06
12281 C 174.53133809189774 102.36802312208421 76.21665305404255 C 0.0 **** -0.24
12282 H 173.4606080806131 102.19497397738938 76.32753413691165 H 0.0 **** 0.06
12283 H 175.04128940354076 102.0872640994876 77.13847212911347 H 0.0 **** 0.06
12284 H 174.70896052968405 103.42278554189183 76.00985160483117 H 0.0 **** 0.06
12285 H 174.91270096045795 101.76599811091747 75.39155268106771 H 0.0 **** 0.06
12286 C 170.8209037153051 63.47576098547708 149.78934957935894 C 0.0 **** -0.24
12287 H 171.79627770060785 62.990950815417236 149.78944361363466 H 0.0 **** 0.06
12288 H 170.04542077246296 62.73137156888923 149.60382057961098 H 0.0 **** 0.06
12289 H 170.7927310239277 64.23320219112821 149.0061621959654 H 0.0 **** 0.06
12290 H 170.64895240077715 63.94633270813169 150.757238702855 H 0.0 **** 0.06
12291 C 28.714514991330446 136.3524488280467 111.68143142197117 C 0.0 **** -0.24
12292 H 28.35756839169018 136.18593918490222 112.69753132574279 H 0.0 **** 0.06
12293 H 27.99696930272971 135.9412998177928 110.97175753505239 H 0.0 **** 0.06
12294 H 29.679029617716125 135.86230465293715 111.55009757897322 H 0.0 **** 0.06
12295 H 28.824645774638398 137.423430706955 111.50727223484573 H 0.0 **** 0.06
12296 C 150.73427466893048 23.40785012779014 180.2629424483082 C 0.0 **** -0.24
12297 H 150.69817389391716 23.72431687519793 179.2208297485398 H 0.0 **** 0.06
12298 H 151.56046359406815 22.710464715195997 180.40271661842044 H 0.0 **** 0.06
12299 H 149.79701009146504 22.917434682498822 180.5257754083173 H 0.0 **** 0.06
12300 H 150.88157174376158 24.27798346588611 180.9017106989603 H 0.0 **** 0.06
12301 C 150.5660959016821 148.84420022354368 23.908598214055417 C 0.0 **** -0.24
12302 H 150.75283737515636 149.25913441950235 22.91783759117115 H 0.0 **** 0.06
12303 H 149.49136680063606 148.7563030498854 24.069591455888528 H 0.0 **** 0.06
12304 H 150.9945526207698 149.50161592320757 24.664375808958113 H 0.0 **** 0.06
12305 H 151.02632572806993 147.85791737269096 23.981117527387212 H 0.0 **** 0.06
12306 C 70.39122806554391 142.88729804180866 27.045458455569303 C 0.0 **** -0.24
12307 H 70.67090524668832 143.78123253556637 26.48744754745627 H 0.0 **** 0.06
12308 H 70.01472813791398 143.1746171198948 28.02733315328416 H 0.0 **** 0.06
12309 H 71.26526587721125 142.24629527566617 27.16425130663987 H 0.0 **** 0.06
12310 H 69.61550403353218 142.34727671778063 26.501950796452178 H 0.0 **** 0.06
12311 C 41.016310473708245 116.5567713337892 85.14223255494154 C 0.0 **** -0.24
12312 H 41.341274022925006 116.01227444535526 86.02896374308152 H 0.0 **** 0.06
12313 H 41.79796920485404 116.51445113113415 84.38370437959898 H 0.0 **** 0.06
12314 H 40.82094365385589 117.59667704343447 85.40576871325904 H 0.0 **** 0.06
12315 H 40.10449710342618 116.1036334654918 84.75179198329512 H 0.0 **** 0.06
12316 C 144.06118960380275 154.05066008687945 130.63572391890523 C 0.0 **** -0.24
12317 H 143.20621401373245 154.5797605556942 131.05683649478846 H 0.0 **** 0.06
12318 H 144.04960322383914 153.013983485193 130.97319948523307 H 0.0 **** 0.06
12319 H 144.98341785020946 154.52982198301328 130.9663269045364 H 0.0 **** 0.06
12320 H 144.00675587434705 154.07960694404682 129.5483208814273 H 0.0 **** 0.06
12321 C 127.45722843770405 1.7903144061320972 54.05131407891881 C 0.0 **** -0.24
12322 H 128.27008786310756 1.064439083963066 54.03544180389997 H 0.0 **** 0.06
12323 H 127.39722086188137 2.289046140088999 53.08365136571709 H 0.0 **** 0.06
12324 H 127.64527903380078 2.528865448698525 54.83025097029076 H 0.0 **** 0.06
12325 H 126.51708491356187 1.2782560740638473 54.255932694514684 H 0.0 **** 0.06
12326 C 153.51524821807837 181.512006369856 61.898920109817226 C 0.0 **** -0.24
12327 H 154.03651363111382 181.766640870085 60.97610105663989 H 0.0 **** 0.06
12328 H 152.965667122416 180.5813188010771 61.7605343673265 H 0.0 **** 0.06
12329 H 152.8194987882665 182.31078784521057 62.154990878588094 H 0.0 **** 0.06
12330 H 154.24072279342184 181.3893817450834 62.704002242201355 H 0.0 **** 0.06
12331 C 144.0228544113594 64.79440657775916 99.68825273824264 C 0.0 **** -0.24
12332 H 143.96363229913652 63.70525679527816 99.70817525355956 H 0.0 **** 0.06
12333 H 144.43053049962123 65.1534368887128 100.63328544045793 H 0.0 **** 0.06
12334 H 143.02468089041935 65.20795710402331 99.54252710526741 H 0.0 **** 0.06
12335 H 144.669398445762 65.1076807407371 98.87005324421365 H 0.0 **** 0.06
12336 C 153.26089580545036 168.07235569073708 6.074573859855015 C 0.0 **** -0.24
12337 H 153.00669470861368 167.52139122077762 6.979675677783796 H 0.0 **** 0.06
12338 H 153.0112753080266 167.47046865121922 5.200429148088411 H 0.0 **** 0.06
12339 H 154.32769281772613 168.29320725315137 6.071564870190933 H 0.0 **** 0.06
12340 H 152.6968009708649 169.00521550696834 6.046538674497228 H 0.0 **** 0.06
12341 C 83.86200885374382 35.875931055298366 4.5032582403565655 C 0.0 **** -0.24
12342 H 84.62023887231679 36.38895520063781 3.9108463464087393 H 0.0 **** 0.06
12343 H 84.05454749055892 36.045936362294185 5.563557954685649 H 0.0 **** 0.06
12344 H 83.89968198098107 34.80711670916807 4.294081333694152 H 0.0 **** 0.06
12345 H 82.87681228683675 36.263230214739394 4.245631725321303 H 0.0 **** 0.06
12346 C 149.0629248365121 78.79614203957631 107.25530434404222 C 0.0 **** -0.24
12347 H 149.9871226624114 78.22766004984136 107.36250969176082 H 0.0 **** 0.06
12348 H 149.08210520004985 79.34736373863404 106.31520535306994 H 0.0 **** 0.06
12349 H 148.96899103312586 79.49574744177247 108.08541883416724 H 0.0 **** 0.06
12350 H 148.21392476290137 78.11162253516798 107.2583568569937 H 0.0 **** 0.06
12351 C 35.7602318296323 25.826437722324215 144.39773087485116 C 0.0 **** -0.24
12352 H 36.11801516713054 24.935340508099102 143.88096475139596 H 0.0 **** 0.06
12353 H 35.64311069945339 25.608449106944164 145.45898435666297 H 0.0 **** 0.06
12354 H 34.79957083692558 26.127451049511308 143.97876211743338 H 0.0 **** 0.06
12355 H 36.48158879256508 26.633207376265148 144.26897834663873 H 0.0 **** 0.06
12356 C 25.26870503105276 110.41695667023727 144.46721290171325 C 0.0 **** -0.24
12357 H 24.243002284298697 110.77025784212744 144.57988302663694 H 0.0 **** 0.06
12358 H 25.911394734015573 111.25303965028597 144.19014507983582 H 0.0 **** 0.06
12359 H 25.306987559703487 109.65525582838644 143.6882176204253 H 0.0 **** 0.06
12360 H 25.611535520116988 109.99127471724758 145.40998566354494 H 0.0 **** 0.06
12361 C 79.75309370049645 72.92592589413644 106.11962804348293 C 0.0 **** -0.24
12362 H 79.70828770556005 73.2262696339779 107.16706417732796 H 0.0 **** 0.06
12363 H 79.81270819306819 73.8141383337904 105.49029256194272 H 0.0 **** 0.06
12364 H 78.85738601396703 72.35920435428187 105.86658104219846 H 0.0 **** 0.06
12365 H 80.6342351919541 72.30562319489214 105.95714240152112 H 0.0 **** 0.06
12366 C 32.58092610724657 101.49964297282968 59.95933695145635 C 0.0 **** -0.24
12367 H 33.63655966272205 101.62042659285457 59.71166876416966 H 0.0 **** 0.06
12368 H 32.44609133381795 100.58206871605942 60.53285718108815 H 0.0 **** 0.06
12369 H 31.997115415247038 101.44453568777355 59.04137312461262 H 0.0 **** 0.06
12370 H 32.24856175275232 102.35136084216164 60.55221632593181 H 0.0 **** 0.06
12371 C 162.03624026887343 3.04933199125292 167.3144980411289 C 0.0 **** -0.24
12372 H 162.643009519983 3.0050247311465554 168.21833114504844 H 0.0 **** 0.06
12373 H 161.10137670033188 2.5113704186688253 167.47732574741218 H 0.0 **** 0.06
12374 H 162.58005485541213 2.589722834092818 166.48895428631357 H 0.0 **** 0.06
12375 H 161.81998687778736 4.089827544620931 167.07248392137848 H 0.0 **** 0.06
12376 C 176.67251100139384 72.83295189044483 172.1958468914113 C 0.0 **** -0.24
12377 H 176.14197153987746 71.9385638865031 172.52234549625123 H 0.0 **** 0.06
12378 H 176.58027520657228 73.60851744627399 172.95745508352084 H 0.0 **** 0.06
12379 H 176.24148360828354 73.18922114827411 171.26039461702175 H 0.0 **** 0.06
12380 H 177.72533326635067 72.59627704462564 172.04385792682763 H 0.0 **** 0.06
12381 C 7.0659183051670595 83.42935892289017 79.68863853347295 C 0.0 **** -0.24
12382 H 6.177551749811357 83.74966739546568 80.23328311212781 H 0.0 **** 0.06
12383 H 7.680514340879455 82.80082767032545 80.33273132890247 H 0.0 **** 0.06
12384 H 7.6378781451421105 84.30365602716893 79.37996095682188 H 0.0 **** 0.06
12385 H 6.765485666362224 82.86211583157842 78.80696574865239 H 0.0 **** 0.06
12386 C 107.66453292165528 103.34423040321911 101.05019151138866 C 0.0 **** -0.24
12387 H 108.02486323053597 102.36703770083119 101.37134077364102 H 0.0 **** 0.06
12388 H 107.19159520507122 103.85100936997094 101.89130110877214 H 0.0 **** 0.06
12389 H 106.93976346840043 103.21813296027165 100.24562203138969 H 0.0 **** 0.06
12390 H 108.50411029196863 103.94097842161216 100.69218308777532 H 0.0 **** 0.06
12391 C 25.01313792707296 23.32265794981251 118.43570876906081 C 0.0 **** -0.24
12392 H 24.134058086068123 23.687973385165748 117.90315485417214 H 0.0 **** 0.06
12393 H 25.58213637749428 24.16963269760788 118.81930870062509 H 0.0 **** 0.06
12394 H 25.635532608521686 22.74397582166813 117.75304104404812 H 0.0 **** 0.06
12395 H 24.697498513286646 22.689704931775168 119.26498351062368 H 0.0 **** 0.06
12396 C 116.64424551104294 39.200658986086836 92.24605844620925 C 0.0 **** -0.24
12397 H 116.71804776796854 38.23852587368522 92.75344338497393 H 0.0 **** 0.06
12398 H 116.35740789529795 39.0412817905553 91.20565587763554 H 0.0 **** 0.06
12399 H 117.6087698705464 39.70606614838192 92.28453833388699 H 0.0 **** 0.06
12400 H 115.89221392463286 39.815117659135026 92.74063340091556 H 0.0 **** 0.06
12401 C 39.11433769974276 90.69311236866719 66.9376341169841 C 0.0 **** -0.24
12402 H 38.3504611628794 90.92260776851072 67.68027457570383 H 0.0 **** 0.06
12403 H 38.969508566174014 89.6757956391624 66.56970391200196 H 0.0 **** 0.06
12404 H 40.1008385098949 90.77795165520507 67.39252288422387 H 0.0 **** 0.06
12405 H 39.03464459831409 91.39434003845219 66.10651189609325 H 0.0 **** 0.06
12406 C 8.386706400441028 61.35275253366811 158.77534627343812 C 0.0 **** -0.24
12407 H 8.948634646385244 61.55675180490782 159.68680680900098 H 0.0 **** 0.06
12408 H 7.966220243094057 60.34787989827514 158.82595029455555 H 0.0 **** 0.06
12409 H 9.051514176080275 61.42540807463733 157.91486608977985 H 0.0 **** 0.06
12410 H 7.580682279450457 62.0799156696291 158.67572067514092 H 0.0 **** 0.06
12411 C 24.127388268805987 97.94573247917457 32.554185663258636 C 0.0 **** -0.24
12412 H 24.377803700521326 98.97622839991824 32.30317048313657 H 0.0 **** 0.06
12413 H 24.5775586664966 97.27419066353276 31.823115512248933 H 0.0 **** 0.06
12414 H 23.044351919211977 97.82287435518548 32.54228975832666 H 0.0 **** 0.06
12415 H 24.508877285142205 97.7108320572358 33.54736301951215 H 0.0 **** 0.06
12416 C 88.58475595444419 7.921591100356707 51.89708011704397 C 0.0 **** -0.24
12417 H 89.63971243418699 8.11136529890598 52.09435387799982 H 0.0 **** 0.06
12418 H 88.25726607539998 7.053689782100271 52.4701316536424 H 0.0 **** 0.06
12419 H 88.4438365390897 7.729225374181674 50.83294030596625 H 0.0 **** 0.06
12420 H 87.99848951928068 8.792640501760246 52.18927861712899 H 0.0 **** 0.06
12421 C 105.53419677741361 115.35759094501047 127.79787066404693 C 0.0 **** -0.24
12422 H 105.3266433935792 116.03743821665488 126.97252915732405 H 0.0 **** 0.06
12423 H 105.69955525627113 114.35260668852821 127.40760585778317 H 0.0 **** 0.06
12424 H 104.68561514152331 115.34606173348605 128.4812407145268 H 0.0 **** 0.06
12425 H 106.42546626623736 115.69189875656288 128.32966514415278 H 0.0 **** 0.06
12426 C 17.97717967658474 144.38766501146532 3.6138707466262048 C 0.0 **** -0.24
12427 H 17.733943664537605 145.43976174129736 3.756947782500035 H 0.0 **** 0.06
12428 H 19.04431095325276 144.23595075391015 3.7782301177992608 H 0.0 **** 0.06
12429 H 17.71900884753805 144.0900566449671 2.5974572226052572 H 0.0 **** 0.06
12430 H 17.41016105363667 143.7845733472578 4.323954348950451 H 0.0 **** 0.06
12431 C 154.4623362926767 9.790330149127932 178.6438280935292 C 0.0 **** -0.24
12432 H 154.75561110684487 8.793375293856855 178.31489304861358 H 0.0 **** 0.06
12433 H 154.87704961322925 10.534808184345678 177.9629817660187 H 0.0 **** 0.06
12434 H 154.84364550096703 9.966471621085105 179.65004817507537 H 0.0 **** 0.06
12435 H 153.37508695621491 9.865931760716265 178.64790651445662 H 0.0 **** 0.06
12436 C 69.61947164619261 77.43064121007524 32.661505896121 C 0.0 **** -0.24
12437 H 70.60074146535464 77.48845884655128 33.13314669204533 H 0.0 **** 0.06
12438 H 68.8458851376609 77.4586296032229 33.42815307627981 H 0.0 **** 0.06
12439 H 69.54115844338685 76.50019393228206 32.09894187780846 H 0.0 **** 0.06
12440 H 69.49180307392118 78.27540600320219 31.984336380679366 H 0.0 **** 0.06
12441 C 97.9779882614883 22.252328900280233 4.760460444314333 C 0.0 **** -0.24
12442 H 98.55684232703585 22.941318073832676 5.375563893702093 H 0.0 **** 0.06
12443 H 97.07330222653563 22.75030980778591 4.410522482920328 H 0.0 **** 0.06
12444 H 97.70607849181526 21.378287855112134 5.352396839482424 H 0.0 **** 0.06
12445 H 98.57565430093321 21.93933291121776 3.904353453887012 H 0.0 **** 0.06
12446 C 135.0051737250962 102.21374152997436 99.12969119832967 C 0.0 **** -0.24
12447 H 135.93697250435963 102.69437901308908 98.83246233741606 H 0.0 **** 0.06
12448 H 135.08200782742426 101.13912140458598 98.96502346237851 H 0.0 **** 0.06
12449 H 134.18446060926493 102.61513663243431 98.53447918754422 H 0.0 **** 0.06
12450 H 134.8172786660424 102.40723018373791 100.18571011214262 H 0.0 **** 0.06
12451 C 59.09677176250001 124.73793699385779 83.51449936872416 C 0.0 **** -0.24
12452 H 60.08410475628547 124.28541756868033 83.61231613004662 H 0.0 **** 0.06
12453 H 58.33254866834261 123.97123115683861 83.63722490090521 H 0.0 **** 0.06
12454 H 59.001919747701066 125.19331348454007 82.5291615133068 H 0.0 **** 0.06
12455 H 58.971053758994486 125.50209744077573 84.28140493849838 H 0.0 **** 0.06
12456 C 81.10972137149338 75.7653497325405 65.40111166478941 C 0.0 **** -0.24
12457 H 80.08247439359909 75.85381666844921 65.75285244763056 H 0.0 **** 0.06
12458 H 81.53886559911571 76.76016907590181 65.27913181315532 H 0.0 **** 0.06
12459 H 81.12206274486736 75.24419496829245 64.44319267207634 H 0.0 **** 0.06
12460 H 81.69548412219963 75.20222738291406 66.12826062058788 H 0.0 **** 0.06
12461 C 10.461331499601584 115.72949193651566 54.13317942111405 C 0.0 **** -0.24
12462 H 9.439284251933685 115.7875152029449 53.759626115457536 H 0.0 **** 0.06
12463 H 11.07197288954768 115.15709886099107 53.435156774951395 H 0.0 **** 0.06
12464 H 10.464568979401975 115.23911107129287 55.10650078759738 H 0.0 **** 0.06
12465 H 10.869050399750876 116.73575714302227 54.2321441023073 H 0.0 **** 0.06
12466 C 109.31508400964533 12.242097154096314 35.83262042586338 C 0.0 **** -0.24
12467 H 110.1205197362719 11.799093188825047 35.247463931764514 H 0.0 **** 0.06
12468 H 108.36159099220713 11.814458522555597 35.51989902884759 H 0.0 **** 0.06
12469 H 109.30033399886152 13.32022969647209 35.67303339531114 H 0.0 **** 0.06
12470 H 109.47705802984295 12.034127185407272 36.890359655070256 H 0.0 **** 0.06
12471 C 77.46339352822973 79.96979437055921 37.730163808253394 C 0.0 **** -0.24
12472 H 78.29105723113648 79.42874986299609 38.18788422318514 H 0.0 **** 0.06
12473 H 76.58399149297112 79.89939424068012 38.37032257406821 H 0.0 **** 0.06
12474 H 77.2401749498876 79.53497328473162 36.7553538376776 H 0.0 **** 0.06
12475 H 77.73975329625085 81.01720197457473 37.60492013322846 H 0.0 **** 0.06
12476 C 52.19332639396703 152.46149980478495 99.63569748805014 C 0.0 **** -0.24
12477 H 52.11030394250082 152.01760648859903 100.62750006284494 H 0.0 **** 0.06
12478 H 52.37429010947494 153.53218517991633 99.73075707773245 H 0.0 **** 0.06
12479 H 51.266406232965494 152.29696881795556 99.085043361972 H 0.0 **** 0.06
12480 H 53.02078044602791 151.99786585873204 99.09815146105706 H 0.0 **** 0.06
12481 C 143.3210783515145 11.527125962764728 168.62581821868355 C 0.0 **** -0.24
12482 H 142.89303859411885 10.79855061428455 169.31397973943783 H 0.0 **** 0.06
12483 H 144.16363377136418 12.028026437475773 169.10346501604567 H 0.0 **** 0.06
12484 H 142.56268334126167 12.264466451055 168.36010896230263 H 0.0 **** 0.06
12485 H 143.66368578869293 11.018407431968 167.72502248633904 H 0.0 **** 0.06
12486 C 10.509560229056987 135.64228109744266 17.943432290582543 C 0.0 **** -0.24
12487 H 10.695097093017736 134.9448100821728 18.760997974722265 H 0.0 **** 0.06
12488 H 10.916523517787809 136.62025558788292 18.201715385731774 H 0.0 **** 0.06
12489 H 9.436208221777171 135.72841268319615 17.77715193048335 H 0.0 **** 0.06
12490 H 10.989568455805312 135.27592440240784 17.036729360344914 H 0.0 **** 0.06
12491 C 102.5171352334765 87.30897359934899 46.68952776081581 C 0.0 **** -0.24
12492 H 101.52532481114883 87.64471948010758 46.991465072222866 H 0.0 **** 0.06
12493 H 103.13401587872636 87.15510752229297 47.57619450752722 H 0.0 **** 0.06
12494 H 102.97831029163535 88.06277228850645 46.05237437703313 H 0.0 **** 0.06
12495 H 102.43131357620501 86.3716093483995 46.13980303862911 H 0.0 **** 0.06
12496 C 147.54919665852518 116.11625022665119 16.80557541083452 C 0.0 **** -0.24
12497 H 147.74945107985656 116.18645913957887 15.736218478043313 H 0.0 **** 0.06
12498 H 148.2615567518659 116.7364015464836 17.349984089254185 H 0.0 **** 0.06
12499 H 147.65090191877266 115.0789325154583 17.126741106908284 H 0.0 **** 0.06
12500 H 146.53600755457362 116.46169651153328 17.008696171524313 H 0.0 **** 0.06
12501 C 81.35402014179324 171.81631282255972 171.14850438576204 C 0.0 **** -0.24
12502 H 82.44334808491347 171.79556515986138 171.18015133182465 H 0.0 **** 0.06
12503 H 81.02404690181345 171.9747592861155 170.12147626593162 H 0.0 **** 0.06
12504 H 80.98797898664354 172.62844071970943 171.77734342418023 H 0.0 **** 0.06
12505 H 80.96096732281305 170.8687012143625 171.5148867678886 H 0.0 **** 0.06
12506 C 82.57976936169784 63.596501514719805 14.512797575753382 C 0.0 **** -0.24
12507 H 82.07750889415134 62.784171329649425 13.987686681675257 H 0.0 **** 0.06
12508 H 83.1966842194035 64.15567233131193 13.809754614631572 H 0.0 **** 0.06
12509 H 83.20915040329204 63.18421602803281 15.302283216495255 H 0.0 **** 0.06
12510 H 81.83531895351402 64.26000918778132 14.9517400508891 H 0.0 **** 0.06
12511 C 101.92854549119751 53.01983423727364 145.20722896242853 C 0.0 **** -0.24
12512 H 100.92818657841268 53.43370749955028 145.33742632345994 H 0.0 **** 0.06
12513 H 102.52695288943958 53.70158105736883 144.60298959006843 H 0.0 **** 0.06
12514 H 101.85844214745406 52.05482078451354 144.70462281729607 H 0.0 **** 0.06
12515 H 102.39733718082142 52.88971898684974 146.18211342311525 H 0.0 **** 0.06
12516 C 162.32125205706143 116.31503958768906 18.774567386599358 C 0.0 **** -0.24
12517 H 161.77448202924018 117.1790828465115 18.396950984301213 H 0.0 **** 0.06
12518 H 162.9061764627504 115.87377654135054 17.966774864764517 H 0.0 **** 0.06
12519 H 161.61566993787005 115.57792179312565 19.157101801896147 H 0.0 **** 0.06
12520 H 162.98847865740328 116.62923500108826 19.57604927926394 H 0.0 **** 0.06
12521 C 108.64563127819527 80.91870812413393 1.9231934018290815 C 0.0 **** -0.24
12522 H 108.357285790121 79.91984617788074 2.2506335561226294 H 0.0 **** 0.06
12523 H 109.45436373204491 81.2876740229063 2.55353325641628 H 0.0 **** 0.06
12524 H 107.78865315837864 81.58764157258577 2.0021104921828226 H 0.0 **** 0.06
12525 H 108.98007404662577 80.87853224796909 0.8867937278642941 H 0.0 **** 0.06
12526 C 156.31244999733093 153.63012586692386 104.1981637435739 C 0.0 **** -0.24
12527 H 157.12772960398743 154.00146356377562 103.5763423310492 H 0.0 **** 0.06
12528 H 155.88073835224756 152.7412693842969 103.73866231901724 H 0.0 **** 0.06
12529 H 155.54760798391925 154.39964423140947 104.29128993710566 H 0.0 **** 0.06
12530 H 156.6965140487772 153.3777336817017 105.18739091356719 H 0.0 **** 0.06
12531 C 15.74006481284286 118.4499457810236 58.79987007833813 C 0.0 **** -0.24
12532 H 15.898340108658289 118.27082714854744 57.73679492166829 H 0.0 **** 0.06
12533 H 16.692718851589774 118.69187722869331 59.27244055188879 H 0.0 **** 0.06
12534 H 15.321304513088506 117.55554749741405 59.260914413648976 H 0.0 **** 0.06
12535 H 15.048792762339133 119.28268883820142 58.92764059450076 H 0.0 **** 0.06
12536 C 132.198722608818 173.1579493325919 107.05365728765351 C 0.0 **** -0.24
12537 H 132.87778267957123 173.45867983250255 107.85146487653354 H 0.0 **** 0.06
12538 H 131.38565663023599 172.56516431393246 107.47346202116982 H 0.0 **** 0.06
12539 H 132.7415312500509 172.5629296564945 106.31962955516296 H 0.0 **** 0.06
12540 H 131.78942319942672 174.0464584912611 106.57090592396831 H 0.0 **** 0.06
12541 C 163.73861209439255 113.88047393616007 10.417577379458123 C 0.0 **** -0.24
12542 H 162.91574675545866 114.30277124781956 10.995317810408977 H 0.0 **** 0.06
12543 H 164.10477477729498 114.62537550268588 9.71126519469567 H 0.0 **** 0.06
12544 H 163.38804656371505 113.00415547448618 9.873436684029457 H 0.0 **** 0.06
12545 H 164.54434064580155 113.59150236740824 11.092522785312127 H 0.0 **** 0.06
12546 C 42.36747273338517 173.21275448636973 36.584380308076334 C 0.0 **** -0.24
12547 H 42.27955715489543 172.95441012494373 35.529142229424025 H 0.0 **** 0.06
12548 H 42.66680012641223 172.33012091865217 37.149797380608106 H 0.0 **** 0.06
12549 H 41.406849153834344 173.5727411758481 36.95175241705232 H 0.0 **** 0.06
12550 H 43.11917572042131 173.99311871348928 36.7052797244894 H 0.0 **** 0.06
12551 C 144.88675120006175 131.59978420218738 90.63078514969345 C 0.0 **** -0.24
12552 H 143.93797277153982 131.9501002267258 91.03800567382541 H 0.0 **** 0.06
12553 H 144.9274722030365 130.51200237150016 90.69003766253445 H 0.0 **** 0.06
12554 H 145.70799828178656 132.02761337270442 91.20562929430349 H 0.0 **** 0.06
12555 H 144.9712127872868 131.9112547964242 89.58981461016793 H 0.0 **** 0.06
12556 C 39.63383550065335 184.65587623105046 88.84760414550476 C 0.0 **** -0.24
12557 H 40.62566177184574 184.90532508759284 89.22293766021266 H 0.0 **** 0.06
12558 H 39.16771507283114 185.5479697725438 88.43000480636783 H 0.0 **** 0.06
12559 H 39.02169070711835 184.2753711319804 89.66608445498713 H 0.0 **** 0.06
12560 H 39.71960598125281 183.89328963702047 88.07316532413972 H 0.0 **** 0.06
12561 C 134.8403328968734 176.0110891935125 31.186521834437045 C 0.0 **** -0.24
12562 H 134.2244998068046 175.87565571867003 32.07652564441109 H 0.0 **** 0.06
12563 H 135.75220049984307 175.42061885717897 31.2828787382507 H 0.0 **** 0.06
12564 H 135.098559709269 177.06483807333075 31.081609613128975 H 0.0 **** 0.06
12565 H 134.2853356132801 175.68244095893897 30.308206002446127 H 0.0 **** 0.06
12566 C 111.28874076701362 60.06164502366357 154.02699228635856 C 0.0 **** -0.24
12567 H 110.99982400188901 60.44488963019748 155.00514718909534 H 0.0 **** 0.06
12568 H 111.21935769939068 60.86111796872609 153.28907808212455 H 0.0 **** 0.06
12569 H 110.62342061860886 59.246546001900185 153.74416014248635 H 0.0 **** 0.06
12570 H 112.3145139055452 59.69435437445344 154.0700902207908 H 0.0 **** 0.06
12571 C 16.082216989491428 149.42245006793027 47.68323691446301 C 0.0 **** -0.24
12572 H 15.297056353409431 148.9669174293951 47.07858975234399 H 0.0 **** 0.06
12573 H 16.156189582589604 150.48327458633688 47.44163023650037 H 0.0 **** 0.06
12574 H 17.032994545651775 148.9335702888406 47.471912632645456 H 0.0 **** 0.06
12575 H 15.840081106511434 149.30564436925414 48.73964829764179 H 0.0 **** 0.06
12576 C 25.6050219756722 87.62142633471599 153.00890999537754 C 0.0 **** -0.24
12577 H 24.728542804798366 88.21412356032828 152.7465273908959 H 0.0 **** 0.06
12578 H 26.504548911477798 88.22198534957825 152.87219300753054 H 0.0 **** 0.06
12579 H 25.653738910951745 86.74135381464338 152.36665271451875 H 0.0 **** 0.06
12580 H 25.532037161111305 87.30705256359134 154.0499583650864 H 0.0 **** 0.06
12581 C 127.10927105370742 137.93513739330086 158.7135340895185 C 0.0 **** -0.24
12582 H 127.76115997194545 137.76422241197628 159.57005219385408 H 0.0 **** 0.06
12583 H 126.99731128815655 139.0065359566495 158.54934677298445 H 0.0 **** 0.06
12584 H 126.13188197572619 137.49316682537847 158.90756495005024 H 0.0 **** 0.06
12585 H 127.54617480116671 137.4744588875107 157.827210329683 H 0.0 **** 0.06
12586 C 49.30306909857306 18.53119302505985 184.7057582169071 C 0.0 **** -0.24
12587 H 48.28027451718667 18.251915149578622 184.4504417364945 H 0.0 **** 0.06
12588 H 49.85877661350048 18.746712539577516 183.79377365996973 H 0.0 **** 0.06
12589 H 49.78089601096866 17.708752874412767 185.23785594993723 H 0.0 **** 0.06
12590 H 49.289102173600526 19.415589658337694 185.34154422302018 H 0.0 **** 0.06
12591 C 48.0769904745144 57.2692916971107 180.241295560444 C 0.0 **** -0.24
12592 H 48.00048353706943 56.21024818225658 179.99543812266032 H 0.0 **** 0.06
12593 H 47.2397405151564 57.555538750216826 180.87815700819334 H 0.0 **** 0.06
12594 H 48.05431210736714 57.85809051492767 179.32415543319425 H 0.0 **** 0.06
12595 H 49.013425738464406 57.453289341041625 180.76743167772787 H 0.0 **** 0.06
12596 C 77.47361235301798 23.01701360198166 23.709825397871498 C 0.0 **** -0.24
12597 H 78.0135370792542 23.53372605056103 24.503775596321447 H 0.0 **** 0.06
12598 H 78.17133241085111 22.732755877181717 22.921989352150632 H 0.0 **** 0.06
12599 H 76.71158905606472 23.680132230567324 23.2989001354494 H 0.0 **** 0.06
12600 H 76.99779347264217 22.12373864795353 24.11546024858876 H 0.0 **** 0.06
12601 C 78.48710202771836 103.67057175763172 76.66683744669797 C 0.0 **** -0.24
12602 H 77.79135884108108 103.53975233978885 75.83746232984653 H 0.0 **** 0.06
12603 H 79.03937140010385 102.74461370614266 76.8271140516399 H 0.0 **** 0.06
12604 H 77.93105332220637 103.92288677297701 77.57081221450818 H 0.0 **** 0.06
12605 H 79.18444431603311 104.47481661204479 76.43240769368578 H 0.0 **** 0.06
12606 C 172.72744727265226 38.7175760269908 115.98779719289975 C 0.0 **** -0.24
12607 H 173.17635118662827 39.68072267699307 115.74430555333855 H 0.0 **** 0.06
12608 H 172.9544137056444 38.463149681790014 117.02363977936032 H 0.0 **** 0.06
12609 H 173.13298467993374 37.95044315022497 115.32806472717387 H 0.0 **** 0.06
12610 H 171.64741560263332 38.77623982981413 115.85538685753004 H 0.0 **** 0.06
12611 C 12.753221473331692 127.1255610021732 142.63615990805135 C 0.0 **** -0.24
12612 H 13.194276729539261 127.58619341541622 143.5203049255848 H 0.0 **** 0.06
12613 H 13.474655209304998 126.44576182169091 142.18185954067985 H 0.0 **** 0.06
12614 H 12.482122743739154 127.90049576313764 141.9204330653697 H 0.0 **** 0.06
12615 H 11.860788109927881 126.5685559512937 142.9238810618474 H 0.0 **** 0.06
12616 C 141.479807676328 99.52974320923418 109.60410214505656 C 0.0 **** -0.24
12617 H 141.06447587332622 98.52221286695341 109.62704701521436 H 0.0 **** 0.06
12618 H 141.36391069755535 99.94721303337765 108.60374960355891 H 0.0 **** 0.06
12619 H 142.53783251379417 99.49140795745764 109.86214128818345 H 0.0 **** 0.06
12620 H 140.9525114589373 100.15682871530412 110.32365259733056 H 0.0 **** 0.06
12621 C 117.8253329697834 51.769519880204825 59.988958233489555 C 0.0 **** -0.24
12622 H 116.7721907168982 51.888104021638924 60.24570048587988 H 0.0 **** 0.06
12623 H 118.34130134193668 51.257880760332 60.80165893025645 H 0.0 **** 0.06
12624 H 118.27400027716243 52.751161877062145 59.83424876639127 H 0.0 **** 0.06
12625 H 117.912816178436 51.182478822861526 59.075474892469856 H 0.0 **** 0.06
12626 C 67.43076668245445 18.115883360092994 140.57177946229245 C 0.0 **** -0.24
12627 H 67.69632047912961 17.112985297281625 140.2395596779822 H 0.0 **** 0.06
12628 H 66.6437704598797 18.514323033522317 139.93056408156093 H 0.0 **** 0.06
12629 H 68.30729698290457 18.76099221319282 140.51571208127586 H 0.0 **** 0.06
12630 H 67.07473974904667 18.075576631316494 141.60127572600283 H 0.0 **** 0.06
12631 C 126.47836287133181 47.14680140760623 183.33150371945155 C 0.0 **** -0.24
12632 H 126.90130162126572 47.312242918345675 184.32192295428217 H 0.0 **** 0.06
12633 H 126.58706230212626 46.09601197093181 183.06112550126267 H 0.0 **** 0.06
12634 H 127.00370327158588 47.765170772370766 182.6044554902142 H 0.0 **** 0.06
12635 H 125.42138429034937 47.413779968776566 183.33851093204697 H 0.0 **** 0.06
12636 C 94.81799226162445 31.645129767115463 177.1040117350428 C 0.0 **** -0.24
12637 H 94.04933595561533 31.65269531840829 177.87654885326717 H 0.0 **** 0.06
12638 H 94.94004678117454 32.65167300017879 176.70317162699922 H 0.0 **** 0.06
12639 H 94.52033061853552 30.96876305233485 176.30269595549473 H 0.0 **** 0.06
12640 H 95.76109690210842 31.308305175608268 177.5327274451404 H 0.0 **** 0.06
12641 C 2.095387504906739 90.2817695904576 174.68179849985006 C 0.0 **** -0.24
12642 H 3.0514732845718413 90.35456720838874 174.16311665123513 H 0.0 **** 0.06
12643 H 2.0085432401786534 91.09864730532729 175.3981623972794 H 0.0 **** 0.06
12644 H 2.039805235948336 89.3295222801695 175.20827927685704 H 0.0 **** 0.06
12645 H 1.283943119743867 90.34464167241794 173.95756894736365 H 0.0 **** 0.06
12646 C 5.409793654783762 23.5750479719632 133.41893332396677 C 0.0 **** -0.24
12647 H 5.898364694160563 24.440343098586823 133.8662106781074 H 0.0 **** 0.06
12648 H 4.335341192519891 23.631786364997026 133.5960294765415 H 0.0 **** 0.06
12649 H 5.8044330569437435 22.663337477794357 133.8679801952382 H 0.0 **** 0.06
12650 H 5.6019219849994215 23.563960807720065 132.3463070472858 H 0.0 **** 0.06
12651 C 88.87512727182938 172.37298163435787 57.31441381154954 C 0.0 **** -0.24
12652 H 87.82707264518272 172.5456186955857 57.06940501259004 H 0.0 **** 0.06
12653 H 89.46440337129026 173.24251905523087 57.02369623467308 H 0.0 **** 0.06
12654 H 89.2332799717078 171.49441066645187 56.7762464558665 H 0.0 **** 0.06
12655 H 88.97517286506756 172.20676516788427 58.386952540762806 H 0.0 **** 0.06
12656 C 65.53196057082982 145.07812335042217 147.49986981049187 C 0.0 **** -0.24
12657 H 65.86697805264765 146.09258440906748 147.28523897838954 H 0.0 **** 0.06
12658 H 64.77027696933487 144.7853554124919 146.7771303055158 H 0.0 **** 0.06
12659 H 65.11307413708363 145.0389586958319 148.50496066537232 H 0.0 **** 0.06
12660 H 66.37841974187086 144.39383915265222 147.43319598961887 H 0.0 **** 0.06
12661 C 17.617903502174528 43.5660065895143 71.0525688966655 C 0.0 **** -0.24
12662 H 16.650037201655415 43.323968357137005 71.49221272383146 H 0.0 **** 0.06
12663 H 17.472235807428937 43.94529231430215 70.04015165391198 H 0.0 **** 0.06
12664 H 18.236627384532383 42.669629381037566 71.02083561167032 H 0.0 **** 0.06
12665 H 18.11077399341628 44.326658821178455 71.65878440867291 H 0.0 **** 0.06
12666 C 174.89370426466107 5.361527489211198 180.58942036353446 C 0.0 **** -0.24
12667 H 175.23691395144897 5.572748740823265 179.5758163486655 H 0.0 **** 0.06
12668 H 175.13870984003478 4.331652920390994 180.84854195009288 H 0.0 **** 0.06
12669 H 173.81506621989135 5.503580153546224 180.64346047849796 H 0.0 **** 0.06
12670 H 175.38523643370726 6.03927636945361 181.28713300972427 H 0.0 **** 0.06
12671 C 165.44060400935314 119.20318638029697 125.41451133016763 C 0.0 **** -0.24
12672 H 165.09554254293374 118.51290226850362 124.64550238109034 H 0.0 **** 0.06
12673 H 164.58681227887678 119.56211818760339 125.98981735168037 H 0.0 **** 0.06
12674 H 165.94521101987158 120.04770353338525 124.94597009594752 H 0.0 **** 0.06
12675 H 166.13499062063755 118.68800236926008 126.07873120995454 H 0.0 **** 0.06
12676 C 134.98500922734348 51.90677560683508 164.6248318298597 C 0.0 **** -0.24
12677 H 135.12068360247292 51.91480209274005 165.70641373029923 H 0.0 **** 0.06
12678 H 134.3788659242182 51.04557902369686 164.34137083245975 H 0.0 **** 0.06
12679 H 135.95703024764475 51.84336156459449 164.13692596925515 H 0.0 **** 0.06
12680 H 134.48153417369446 52.82287604959146 164.31487823725894 H 0.0 **** 0.06
12681 C 94.53610609787613 34.09391015773912 89.62367377769402 C 0.0 **** -0.24
12682 H 94.51960767918435 33.12038352471936 90.1133819088659 H 0.0 **** 0.06
12683 H 94.3261748837211 33.969547912453436 88.56085238827416 H 0.0 **** 0.06
12684 H 95.51931609125661 34.54799315034295 89.74938027167923 H 0.0 **** 0.06
12685 H 93.77796723397493 34.73737538324254 90.07088440766671 H 0.0 **** 0.06
12686 C 65.29142107551606 136.96177875092627 82.61256975413953 C 0.0 **** -0.24
12687 H 65.8800630890343 136.89367594132716 81.69793816697232 H 0.0 **** 0.06
12688 H 64.56368866767389 137.76803492313564 82.51558050725912 H 0.0 **** 0.06
12689 H 65.95122092045426 137.16552393391026 83.45499208838487 H 0.0 **** 0.06
12690 H 64.76925125090627 136.0191978597016 82.77923804946992 H 0.0 **** 0.06
12691 C 67.47454496838706 184.94918208225852 134.65801699388282 C 0.0 **** -0.24
12692 H 67.4005456392543 185.90512798994735 134.13923101429447 H 0.0 **** 0.06
12693 H 67.41386331630453 185.11485660027472 135.73389620079018 H 0.0 **** 0.06
12694 H 68.42638862509631 184.47764015542364 134.41548616112698 H 0.0 **** 0.06
12695 H 66.65686556731417 184.3010335957181 134.34336434444162 H 0.0 **** 0.06
12696 C 58.6978393074952 89.86507114172008 169.98946900947485 C 0.0 **** -0.24
12697 H 57.93070209968096 90.63453790256875 170.07285220594693 H 0.0 **** 0.06
12698 H 58.34743986071612 88.95030855428001 170.4682727452231 H 0.0 **** 0.06
12699 H 59.608964154124806 90.2070567331337 170.48047281236296 H 0.0 **** 0.06
12700 H 58.90329719378906 89.6692823563626 168.93808890768835 H 0.0 **** 0.06
12701 C 152.94045158548715 152.56344585499042 97.24956877282649 C 0.0 **** -0.24
12702 H 152.2140836099696 152.7932927989433 98.0297798571486 H 0.0 **** 0.06
12703 H 153.82820515947407 153.18056788709757 97.385878487652 H 0.0 **** 0.06
12704 H 152.5002498180603 152.76919592296554 96.27321857538125 H 0.0 **** 0.06
12705 H 153.21647420885597 151.5104845191318 97.3090272325354 H 0.0 **** 0.06
12706 C 175.2167089349661 34.6839040395588 37.90082771836629 C 0.0 **** -0.24
12707 H 174.9074128394984 34.967870070639776 38.90750771785403 H 0.0 **** 0.06
12708 H 176.24576130585083 34.324837338356815 37.925821621232316 H 0.0 **** 0.06
12709 H 175.15015105724004 35.549789464455245 37.24264246661657 H 0.0 **** 0.06
12710 H 174.56400793567053 33.89321136120196 37.53090900306492 H 0.0 **** 0.06
12711 C 96.22794795487061 16.952826810886144 20.571957852352995 C 0.0 **** -0.24
12712 H 95.8885069384284 16.76926127178654 21.590891034014362 H 0.0 **** 0.06
12713 H 95.48218945751483 16.58192853039668 19.868397543917467 H 0.0 **** 0.06
12714 H 97.17410447030039 16.437442501730132 20.405145864829024 H 0.0 **** 0.06
12715 H 96.36683591056197 18.024211767517684 20.422613260098302 H 0.0 **** 0.06
12716 C 44.87083772215402 98.63052866815683 143.9138705146787 C 0.0 **** -0.24
12717 H 44.54146541991517 98.92354751537921 142.91652291815026 H 0.0 **** 0.06
12718 H 44.982355093099784 97.54649476977637 143.95487996076616 H 0.0 **** 0.06
12719 H 44.13007771718554 98.94823434360838 144.64742151738957 H 0.0 **** 0.06
12720 H 45.82733611918445 99.10422014906324 144.13456613671337 H 0.0 **** 0.06
12721 C 165.26087019202748 78.51811918438462 140.66575180980936 C 0.0 **** -0.24
12722 H 165.24080841240476 79.55017803861753 141.01637328525612 H 0.0 **** 0.06
12723 H 166.27522996471282 78.12651986872926 140.74649589871768 H 0.0 **** 0.06
12724 H 164.93944859971276 78.48228832437087 139.6245363239026 H 0.0 **** 0.06
12725 H 164.58842052135765 77.91398758141688 141.27434838914024 H 0.0 **** 0.06
12726 C 86.23569552193491 108.5317145736758 37.508543470192905 C 0.0 **** -0.24
12727 H 86.08288162469218 107.87767984566676 36.64976476572265 H 0.0 **** 0.06
12728 H 85.32378756078894 109.09611610111574 37.7020121651621 H 0.0 **** 0.06
12729 H 87.0526392458789 109.22135137822147 37.29805267898681 H 0.0 **** 0.06
12730 H 86.48415070351199 107.93071583388672 38.38309872441775 H 0.0 **** 0.06
12731 C 178.1977140672696 101.21809249652496 13.868277564759182 C 0.0 **** -0.24
12732 H 178.5732287633171 101.79242684504105 14.715887240451082 H 0.0 **** 0.06
12733 H 177.86230764974505 100.23981861749984 14.213373389764342 H 0.0 **** 0.06
12734 H 178.99351707663885 101.09292283955288 13.133920366837344 H 0.0 **** 0.06
12735 H 177.36294071145807 101.74941937651091 13.41159874482895 H 0.0 **** 0.06
12736 C 32.216362883253595 64.84861515695052 62.97025933799155 C 0.0 **** -0.24
12737 H 31.424841605656923 64.09963348109417 62.96348694459391 H 0.0 **** 0.06
12738 H 32.005660382891335 65.60522495039423 62.21460304422955 H 0.0 **** 0.06
12739 H 33.17113677602481 64.37072402967647 62.75049070610399 H 0.0 **** 0.06
12740 H 32.26381276844131 65.31887816663728 63.952456657038866 H 0.0 **** 0.06
12741 C 123.51133795676371 46.31719046265441 163.4437346800394 C 0.0 **** -0.24
12742 H 123.78971197507865 46.97016683753145 164.27051585216057 H 0.0 **** 0.06
12743 H 124.25359013320498 45.52465534515548 163.34188091230214 H 0.0 **** 0.06
12744 H 123.46874238299067 46.89629149295345 162.52218059274622 H 0.0 **** 0.06
12745 H 122.53383894141923 45.87676905889532 163.64234748327084 H 0.0 **** 0.06
12746 C 133.31954544790256 107.96405662411577 169.30913315852104 C 0.0 **** -0.24
12747 H 134.18882909327948 108.39693941516036 168.81443144218397 H 0.0 **** 0.06
12748 H 132.9950214221729 108.62268412159135 170.1152934166072 H 0.0 **** 0.06
12749 H 133.5826340939799 106.98950690537815 169.71854680714176 H 0.0 **** 0.06
12750 H 132.51202880216044 107.84840194238355 168.58717250192225 H 0.0 **** 0.06
12751 C 146.57693848026506 46.30837451858241 126.17274552222187 C 0.0 **** -0.24
12752 H 145.6052380477624 46.792024845999094 126.07316644892609 H 0.0 **** 0.06
12753 H 146.76868064407876 46.091296106672786 127.22462114414407 H 0.0 **** 0.06
12754 H 147.3525783266022 46.97171445643738 125.79065481677941 H 0.0 **** 0.06
12755 H 146.57952048801357 45.37858777063161 125.60394300955375 H 0.0 **** 0.06
12756 C 140.02535081028446 28.573221626933048 60.42938813777063 C 0.0 **** -0.24
12757 H 139.0963613930121 28.801334577053296 59.90706113064172 H 0.0 **** 0.06
12758 H 139.8175112075479 28.415773918145874 61.488341070176645 H 0.0 **** 0.06
12759 H 140.719957726595 29.4055408503674 60.314804928721244 H 0.0 **** 0.06
12760 H 140.466949879737 27.669875803937828 60.00803916016392 H 0.0 **** 0.06
12761 C 29.71477188081127 83.94830996788947 109.04342296537986 C 0.0 **** -0.24
12762 H 30.27023312481606 84.12730001595816 108.12242147242377 H 0.0 **** 0.06
12763 H 28.64556871737628 83.96013113791832 108.83080304781656 H 0.0 **** 0.06
12764 H 29.95040074206898 84.72797808118467 109.76750032721743 H 0.0 **** 0.06
12765 H 29.993102256246786 82.9770974941477 109.45232257615307 H 0.0 **** 0.06
12766 C 29.153493429330013 179.88526168204936 180.03419668483406 C 0.0 **** -0.24
12767 H 28.833697467355478 179.08860042612253 179.3627469537627 H 0.0 **** 0.06
12768 H 29.281605710716576 179.48183226200197 181.0398319905753 H 0.0 **** 0.06
12769 H 28.39922180929284 180.67179324368783 180.05062173236934 H 0.0 **** 0.06
12770 H 30.100458771735788 180.2969601646706 179.68481813953952 H 0.0 **** 0.06
12771 C 183.98196134479636 107.64762648594082 149.09491011310888 C 0.0 **** -0.24
12772 H 184.50114782107676 106.84864111466335 148.5650222403816 H 0.0 **** 0.06
12773 H 183.08157749060322 107.24745822749163 149.56320776774834 H 0.0 **** 0.06
12774 H 183.706771273134 108.43149708531253 148.38952251573528 H 0.0 **** 0.06
12775 H 184.63742143622207 108.06113524212692 149.86047650860166 H 0.0 **** 0.06
12776 C 79.09286014706947 47.380336777847944 80.14959436394395 C 0.0 **** -0.24
12777 H 78.14652227609702 47.41974041517824 79.61058570066405 H 0.0 **** 0.06
12778 H 78.99979419750355 46.699584301055424 80.99679870798212 H 0.0 **** 0.06
12779 H 79.34780909172378 48.37661895997135 80.50893010911568 H 0.0 **** 0.06
12780 H 79.87617565724304 47.023395992804396 79.48124307878874 H 0.0 **** 0.06
12781 C 17.221174087065926 37.0288745503552 65.11877383290316 C 0.0 **** -0.24
12782 H 17.016267230886058 37.40011709808937 64.115005186297 H 0.0 **** 0.06
12783 H 18.284443971285363 36.80678404320241 65.21359651932083 H 0.0 **** 0.06
12784 H 16.643424103212674 36.120983097442775 65.29497954799 H 0.0 **** 0.06
12785 H 16.94117682575851 37.786467131862395 65.85096123088522 H 0.0 **** 0.06
12786 C 130.31477435901985 41.96946055991428 43.66798743871182 C 0.0 **** -0.24
12787 H 129.71898417195223 42.86353378589429 43.48642350248319 H 0.0 **** 0.06
12788 H 130.21424332130692 41.28815086278455 42.823174460761436 H 0.0 **** 0.06
12789 H 129.964032215278 41.47775481535791 44.574932725854424 H 0.0 **** 0.06
12790 H 131.36151844388655 42.249071098262306 43.78862382805798 H 0.0 **** 0.06
12791 C 92.63235657349418 91.20108447391009 86.12452480151016 C 0.0 **** -0.24
12792 H 92.67908188786885 90.96165088221359 85.0621860312834 H 0.0 **** 0.06
12793 H 92.69013213242516 90.28127318465825 86.70705939780426 H 0.0 **** 0.06
12794 H 91.69370756524319 91.71125621602404 86.34150914178095 H 0.0 **** 0.06
12795 H 93.46765302612562 91.85086760713712 86.38692353674683 H 0.0 **** 0.06
12796 C 80.86970151716878 43.06766626252582 59.36732831694201 C 0.0 **** -0.24
12797 H 80.63707138541587 43.91359369868425 58.72109589853028 H 0.0 **** 0.06
12798 H 80.04033906917137 42.360713295779334 59.35298296341682 H 0.0 **** 0.06
12799 H 81.02803459539584 43.42182907126988 60.38555603427926 H 0.0 **** 0.06
12800 H 81.77376974115087 42.57550570511569 59.008740815161616 H 0.0 **** 0.06
12801 C 126.75229561607422 138.72351778684418 179.2409467130949 C 0.0 **** -0.24
12802 H 127.70702876481893 138.94715879342237 178.76687853989472 H 0.0 **** 0.06
12803 H 126.68230616526053 139.26032947507593 180.18732880625848 H 0.0 **** 0.06
12804 H 126.68023782479268 137.6509895769961 179.42534115938943 H 0.0 **** 0.06
12805 H 125.9387698053509 139.03495370945137 178.58517937398798 H 0.0 **** 0.06
12806 C 4.285018359081164 94.06000529176681 12.224648564257741 C 0.0 **** -0.24
12807 H 4.953753599371623 93.30155625689336 12.633430460884192 H 0.0 **** 0.06
12808 H 4.6650213813156824 94.39689154467821 11.260283118067335 H 0.0 **** 0.06
12809 H 4.232048444698023 94.90534608113693 12.910811448922956 H 0.0 **** 0.06
12810 H 3.290804186407172 93.6337090358163 12.09518422244959 H 0.0 **** 0.06
12811 C 153.98506266343253 113.95702246864805 149.52780523287936 C 0.0 **** -0.24
12812 H 153.56214005379056 114.29678996290396 148.58229326353427 H 0.0 **** 0.06
12813 H 153.99900614249555 114.78464196979262 150.23761853630563 H 0.0 **** 0.06
12814 H 155.00234070969793 113.60202883588859 149.3629681644361 H 0.0 **** 0.06
12815 H 153.37571089783586 113.14654032529687 149.92722791010783 H 0.0 **** 0.06
12816 C 47.85921954628358 54.60490522074559 142.8716164489676 C 0.0 **** -0.24
12817 H 48.59398429916641 55.28382178194953 142.44034809646473 H 0.0 **** 0.06
12818 H 48.37346222983484 53.78987352038369 143.3824414597628 H 0.0 **** 0.06
12819 H 47.2309140611348 54.19860904328863 142.07947127422767 H 0.0 **** 0.06
12820 H 47.23895939488837 55.147892269709644 143.58541880006152 H 0.0 **** 0.06
12821 C 130.30847613114503 55.40256855482306 63.34408790782186 C 0.0 **** -0.24
12822 H 131.31432039919537 55.78836227152971 63.50380900720813 H 0.0 **** 0.06
12823 H 129.68191268942348 55.655810810972014 64.19919841068312 H 0.0 **** 0.06
12824 H 130.34826864151125 54.319335433407446 63.23152720077127 H 0.0 **** 0.06
12825 H 129.88811149288017 55.846585000120655 62.441269348479295 H 0.0 **** 0.06
12826 C 43.06794774235203 149.01439570187486 170.41962011122925 C 0.0 **** -0.24
12827 H 43.24683034572405 148.49330731087417 171.36095337007896 H 0.0 **** 0.06
12828 H 43.08254455806474 148.29595448783658 169.5993832281912 H 0.0 **** 0.06
12829 H 43.846424455439205 149.75982539934378 170.26373911705653 H 0.0 **** 0.06
12830 H 42.09588022618058 149.5052263463308 170.45495225507838 H 0.0 **** 0.06
12831 C 26.940569546158187 11.825329352206865 57.759636722027494 C 0.0 **** -0.24
12832 H 26.852457880139596 11.871309959878687 58.84471066444962 H 0.0 **** 0.06
12833 H 27.974069521073233 12.02337565285751 57.471057633802275 H 0.0 **** 0.06
12834 H 26.28737925456737 12.573319249503527 57.309359097258834 H 0.0 **** 0.06
12835 H 26.650579711085683 10.833885721830995 57.41252755669609 H 0.0 **** 0.06
12836 C 14.449819454366803 90.89508096693022 177.40884210347446 C 0.0 **** -0.24
12837 H 13.943612186758173 91.47163025955079 176.6338966178804 H 0.0 **** 0.06
12838 H 15.262135165344546 91.48718623437206 177.82883361524227 H 0.0 **** 0.06
12839 H 14.853169668326842 89.98008496271065 176.9757725196031 H 0.0 **** 0.06
12840 H 13.73877128359868 90.64221158701024 178.1951772309308 H 0.0 **** 0.06
12841 C 89.11520387445694 137.86172019772198 7.630007211393547 C 0.0 **** -0.24
12842 H 90.00280999693501 137.31365125560836 7.312156306554641 H 0.0 **** 0.06
12843 H 88.29256072266429 137.64802773508558 6.948256438081927 H 0.0 **** 0.06
12844 H 89.32669032301675 138.93071834761906 7.6215936937883555 H 0.0 **** 0.06
12845 H 88.84197597992602 137.55419521727964 8.638756553452893 H 0.0 **** 0.06
12846 C 11.363277166830017 175.47030222088847 99.54825052108419 C 0.0 **** -0.24
12847 H 10.486176766354106 175.3333780639005 100.1810309212982 H 0.0 **** 0.06
12848 H 11.065684082830558 175.9410039342887 98.61178130550661 H 0.0 **** 0.06
12849 H 11.815152291171273 174.49985086971822 99.34055739413236 H 0.0 **** 0.06
12850 H 12.086120853814435 176.10466569797012 100.06154610213753 H 0.0 **** 0.06
12851 C 18.312405028588465 56.0010255697224 18.816888351221053 C 0.0 **** -0.24
12852 H 19.26150432172598 56.47486811087893 19.06461220173955 H 0.0 **** 0.06
12853 H 17.506806389835 56.494324471940104 19.362101544674204 H 0.0 **** 0.06
12854 H 18.347677753870066 54.948286961241934 19.094997303393484 H 0.0 **** 0.06
12855 H 18.132187582924935 56.08858765694998 17.745610185439517 H 0.0 **** 0.06
12856 C 102.09440054747101 36.994136771142905 74.11157059303383 C 0.0 **** -0.24
12857 H 101.14971521418427 37.53677120847411 74.1243309065423 H 0.0 **** 0.06
12858 H 102.74788069357884 37.38290956713536 74.8933543266894 H 0.0 **** 0.06
12859 H 102.57367203836232 37.12161329168197 73.14167374176651 H 0.0 **** 0.06
12860 H 101.90680414400772 35.93478119061422 74.2881710440355 H 0.0 **** 0.06
12861 C 2.4283957493629913 12.41603604331113 59.600597626098605 C 0.0 **** -0.24
12862 H 2.121862963528578 12.967521506638299 60.48928136743865 H 0.0 **** 0.06
12863 H 1.5454264123338035 12.135990325212454 59.02486336086517 H 0.0 **** 0.06
12864 H 2.966782935046048 11.516478721200002 59.89965152679375 H 0.0 **** 0.06
12865 H 3.077979743631701 13.04309597797289 58.989834301839196 H 0.0 **** 0.06
12866 C 80.48520622681167 80.75356525674034 107.12886899400895 C 0.0 **** -0.24
12867 H 79.73604900468193 81.05452236632868 106.39781934312792 H 0.0 **** 0.06
12868 H 80.02373341676228 80.67899625489609 108.11376984372787 H 0.0 **** 0.06
12869 H 81.28372440400418 81.49496925762134 107.15642240777116 H 0.0 **** 0.06
12870 H 80.89885723153232 79.78424639450469 106.84691650817221 H 0.0 **** 0.06
12871 C 1.5220913453987066 15.078138886188384 179.21314708203568 C 0.0 **** -0.24
12872 H 2.0959104023258135 15.730550605817037 178.55541918486207 H 0.0 **** 0.06
12873 H 1.1499293437802223 14.225894374386527 178.64498329548945 H 0.0 **** 0.06
12874 H 0.6815487960518851 15.631838775156723 179.6314579931475 H 0.0 **** 0.06
12875 H 2.161667163263239 14.7248766817468 180.02250483441708 H 0.0 **** 0.06
12876 C 165.0424136973495 179.87681256034654 160.0892958632856 C 0.0 **** -0.24
12877 H 165.79670659469082 180.51417631345353 159.62784160209787 H 0.0 **** 0.06
12878 H 165.10902684201895 179.96419270652825 161.1738269908428 H 0.0 **** 0.06
12879 H 165.213519847023 178.8414427036947 159.7967787229802 H 0.0 **** 0.06
12880 H 164.05135593632184 180.1884340839124 159.75904912202603 H 0.0 **** 0.06
12881 C 115.42446029975746 0.24529261089054444 112.06380876541049 C 0.0 **** -0.24
12882 H 116.18705707051664 0.7900876463992859 112.61968544171152 H 0.0 **** 0.06
12883 H 115.09584066723731 0.8462796653186615 111.21547446858268 H 0.0 **** 0.06
12884 H 114.57505787128277 0.0422960598463078 112.71576142389101 H 0.0 **** 0.06
12885 H 115.83927291496754 -0.6953476559943397 111.70416352459124 H 0.0 **** 0.06
12886 C 71.63222625200628 5.863189458407533 119.76514141765995 C 0.0 **** -0.24
12887 H 71.3933836262353 5.13964907977757 120.54580391227535 H 0.0 **** 0.06
12888 H 71.59871379602798 6.870174957440497 120.1812657839314 H 0.0 **** 0.06
12889 H 70.9049449261493 5.777869685659141 118.95796438378312 H 0.0 **** 0.06
12890 H 72.63116169749358 5.662497091624687 119.37796456952344 H 0.0 **** 0.06
12891 C 99.30458604126454 150.21875411684167 39.173204333268586 C 0.0 **** -0.24
12892 H 99.96339672568325 150.567646430663 39.96765317940242 H 0.0 **** 0.06
12893 H 98.87046918342901 149.25916447591294 39.45638743941754 H 0.0 **** 0.06
12894 H 99.87591314219281 150.10141719586267 38.252961035300046 H 0.0 **** 0.06
12895 H 98.5078171839042 150.94615296403018 39.015623607729424 H 0.0 **** 0.06
12896 C 106.00965096612255 181.7845604211104 49.94996535670185 C 0.0 **** -0.24
12897 H 105.9313536198725 182.86656438496175 49.85115607307529 H 0.0 **** 0.06
12898 H 106.90800802964883 181.43636702377043 49.4390335235139 H 0.0 **** 0.06
12899 H 105.13305408572158 181.31439022136485 49.503488847138556 H 0.0 **** 0.06
12900 H 106.06583493456343 181.5189068379192 51.00527615524902 H 0.0 **** 0.06
12901 C 37.122599834410494 95.90067843271537 10.727179913123052 C 0.0 **** -0.24
12902 H 37.6001611914362 96.7396386837125 11.23380425397039 H 0.0 **** 0.06
12903 H 36.7916449083842 96.21619264777026 9.737114253622224 H 0.0 **** 0.06
12904 H 36.26367624259163 95.56656558180767 11.30782971358525 H 0.0 **** 0.06
12905 H 37.83592917847653 95.08324777522479 10.628794467350474 H 0.0 **** 0.06
12906 C 100.97695022447623 27.549723561734268 63.53954034775791 C 0.0 **** -0.24
12907 H 101.62203698419133 27.364231315793873 62.68044776003602 H 0.0 **** 0.06
12908 H 99.96345637683949 27.219503514539383 63.310906767540374 H 0.0 **** 0.06
12909 H 100.97009830673413 28.61663928068772 63.764547647421324 H 0.0 **** 0.06
12910 H 101.35409958024972 26.998950069091904 64.40114482943082 H 0.0 **** 0.06
12911 C 28.19328599680682 88.85415339393167 98.37965164631817 C 0.0 **** -0.24
12912 H 28.47646934678346 88.75208843619212 97.33228194781282 H 0.0 **** 0.06
12913 H 29.092206838978882 88.93264170995904 98.99244794805242 H 0.0 **** 0.06
12914 H 27.61801241846689 87.98083124188868 98.68691226942508 H 0.0 **** 0.06
12915 H 27.587194448791422 89.7513877047959 98.5058062924191 H 0.0 **** 0.06
12916 C 11.80180640130061 137.42068719328734 169.16755355524347 C 0.0 **** -0.24
12917 H 11.78334305555586 138.5111024611723 169.18928036053185 H 0.0 **** 0.06
12918 H 12.037871531721578 137.0820749835131 168.15883189694154 H 0.0 **** 0.06
12919 H 10.825642437411034 137.035628812075 169.46269644634398 H 0.0 **** 0.06
12920 H 12.560831982864215 137.05738470129955 169.86079726688712 H 0.0 **** 0.06
12921 C 88.29490257780009 67.96055459285913 44.920694942418834 C 0.0 **** -0.24
12922 H 87.74641920506417 67.29668257141198 44.25217770148876 H 0.0 **** 0.06
12923 H 87.76432445695832 68.03766824878281 45.87040633928427 H 0.0 **** 0.06
12924 H 88.37356280910518 68.94791049337805 44.46611574465345 H 0.0 **** 0.06
12925 H 89.29282690068118 67.55902408869697 45.09266769454089 H 0.0 **** 0.06
12926 C 66.01196171860639 95.45323129831 53.14070095914835 C 0.0 **** -0.24
12927 H 66.819045790019 96.04346616984559 52.70786676833842 H 0.0 **** 0.06
12928 H 66.16724562511435 95.35763774778822 54.21500451347519 H 0.0 **** 0.06
12929 H 66.00130593579709 94.46318961714094 52.68471928203465 H 0.0 **** 0.06
12930 H 65.05948376012432 95.94902095676402 52.95408983929144 H 0.0 **** 0.06
12931 C 76.51350703814688 79.71772353687034 91.89573905715407 C 0.0 **** -0.24
12932 H 77.50277570500154 79.26236003684754 91.93083791115596 H 0.0 **** 0.06
12933 H 75.87881304699663 79.15708244241694 91.20858223763604 H 0.0 **** 0.06
12934 H 76.59970248119404 80.7484283297348 91.55191303105396 H 0.0 **** 0.06
12935 H 76.07207830173604 79.70385210405219 92.89256082264451 H 0.0 **** 0.06
12936 C 35.633613590435885 62.77687818281514 71.60542861729934 C 0.0 **** -0.24
12937 H 35.82153060498507 61.74787630522884 71.29883981110805 H 0.0 **** 0.06
12938 H 34.90813762871673 63.23032383887001 70.92921041559617 H 0.0 **** 0.06
12939 H 36.56509980188105 63.34136110997906 71.57149028843747 H 0.0 **** 0.06
12940 H 35.23919605461714 62.787111444602814 72.62114729515005 H 0.0 **** 0.06
12941 C 77.97271381403594 93.40152944301286 29.736887199400883 C 0.0 **** -0.24
12942 H 78.82763591999036 93.33297775236889 29.065029927330258 H 0.0 **** 0.06
12943 H 78.13154012219952 94.21561822280177 30.444336161721054 H 0.0 **** 0.06
12944 H 77.86213142705496 92.4632547466357 30.28012424063992 H 0.0 **** 0.06
12945 H 77.06930499660861 93.59451718622779 29.157121179493487 H 0.0 **** 0.06
12946 C 145.76773218303308 92.80226545807538 20.15422130854347 C 0.0 **** -0.24
12947 H 146.48352389275203 91.98054757252798 20.1497162399111 H 0.0 **** 0.06
12948 H 145.22504912893697 92.80529869514429 21.099661032758718 H 0.0 **** 0.06
12949 H 145.06417725199577 92.67628946938028 19.331088949788608 H 0.0 **** 0.06
12950 H 146.29851772641206 93.74706440333888 20.03734949161094 H 0.0 **** 0.06
12951 C 158.80793163792606 172.93341099982962 6.79916486772732 C 0.0 **** -0.24
12952 H 159.3255062487061 173.19118112255046 7.724105131942977 H 0.0 **** 0.06
12953 H 157.7524747059419 172.7585734738695 7.010711310155138 H 0.0 **** 0.06
12954 H 159.24834291239105 172.03084104579904 6.377197197432274 H 0.0 **** 0.06
12955 H 158.90615598580888 173.75332313559807 6.087704798739381 H 0.0 **** 0.06
12956 C 92.85855405944984 130.89852252544404 165.47588140429232 C 0.0 **** -0.24
12957 H 93.49055786338762 130.1940121797016 164.935752055918 H 0.0 **** 0.06
12958 H 92.03934297967156 130.35953734694903 165.95279289601658 H 0.0 **** 0.06
12959 H 92.45382691736607 131.6320717909864 164.77915135638483 H 0.0 **** 0.06
12960 H 93.45048847737432 131.4084687841392 166.23582930884993 H 0.0 **** 0.06
12961 C 177.5089102147022 100.29522374947409 69.95929737450147 C 0.0 **** -0.24
12962 H 178.2103535311706 99.51711467982737 70.26022578968481 H 0.0 **** 0.06
12963 H 177.3618981163882 100.99150219204655 70.78527264662317 H 0.0 **** 0.06
12964 H 176.5540526824762 99.83963996963173 69.69370196955772 H 0.0 **** 0.06
12965 H 177.90826100522008 100.83129554992134 69.09819091160917 H 0.0 **** 0.06
12966 C 125.96680128721523 128.780033306461 78.3431441054073 C 0.0 **** -0.24
12967 H 124.92982271083007 128.68675904820157 78.66503026005267 H 0.0 **** 0.06
12968 H 126.0217912945392 129.4453872419365 77.48188015755522 H 0.0 **** 0.06
12969 H 126.35145991618516 127.7973441890987 78.06957654460393 H 0.0 **** 0.06
12970 H 126.56433351742648 129.18932187528083 79.15877546017708 H 0.0 **** 0.06
12971 C 134.29884091066526 164.67341686228087 73.03572824172363 C 0.0 **** -0.24
12972 H 134.5863476427079 164.9489750403584 74.05028229551239 H 0.0 **** 0.06
12973 H 133.22374466452794 164.80677054235898 72.91373959258377 H 0.0 **** 0.06
12974 H 134.55871038728458 163.63052873286932 72.85439273470709 H 0.0 **** 0.06
12975 H 134.82702670355002 165.30807596629307 72.32393546218492 H 0.0 **** 0.06
12976 C 104.63800011491661 153.02287193885428 107.15407771315257 C 0.0 **** -0.24
12977 H 105.72116428065114 153.13194987084802 107.21368285308596 H 0.0 **** 0.06
12978 H 104.20311705674321 153.17184900904954 108.14278188531965 H 0.0 **** 0.06
12979 H 104.39376878823929 152.02238791888317 106.79629962420147 H 0.0 **** 0.06
12980 H 104.23554026258189 153.7640881526625 106.46358299466412 H 0.0 **** 0.06
12981 C 128.9137435272923 105.29150190202925 71.48409767773053 C 0.0 **** -0.24
12982 H 128.381619643909 104.47357230390652 70.9979241294666 H 0.0 **** 0.06
12983 H 129.31134463306643 104.94884926260649 72.43974505456562 H 0.0 **** 0.06
12984 H 128.22803461351964 106.12194109584415 71.6506371049186 H 0.0 **** 0.06
12985 H 129.73390524828568 105.62002143651553 70.8453715694081 H 0.0 **** 0.06
12986 C 107.99643652783686 136.84202497027258 38.47483187289521 C 0.0 **** -0.24
12987 H 108.9819070287698 136.386848777453 38.3696609617938 H 0.0 **** 0.06
12988 H 107.3866325374699 136.59186264215003 37.60746157521112 H 0.0 **** 0.06
12989 H 108.10322120838777 137.9243181062712 38.5458386022261 H 0.0 **** 0.06
12990 H 107.51724455703646 136.46411983393625 39.37793935528521 H 0.0 **** 0.06
12991 C 4.3115760937301175 56.65308464599315 174.8972071569836 C 0.0 **** -0.24
12992 H 4.897144737012042 57.354940664515595 175.49180608036096 H 0.0 **** 0.06
12993 H 4.619345175784652 56.7167888392317 173.85363333386238 H 0.0 **** 0.06
12994 H 3.2539151119237886 56.902515007186906 174.98072421607856 H 0.0 **** 0.06
12995 H 4.476705961604765 55.64074244188788 175.26449141279443 H 0.0 **** 0.06
12996 C 184.62578898056728 20.55521121216551 82.15848126667247 C 0.0 **** -0.24
12997 H 185.18005807462163 19.680243263831066 81.81795191428792 H 0.0 **** 0.06
12998 H 184.28855627572 20.394396466683673 83.18211648817093 H 0.0 **** 0.06
12999 H 183.76363332311564 20.71374561502141 81.51156798036953 H 0.0 **** 0.06
13000 H 185.2744064737966 21.43126726690828 82.12170444010441 H 0.0 **** 0.06
13001 C 65.91865570800837 30.157182008587327 164.96554805274687 C 0.0 **** -0.24
13002 H 65.72727650636335 29.115358376632216 164.7114145300985 H 0.0 **** 0.06
13003 H 66.40408928435056 30.65313965717482 164.12485808382658 H 0.0 **** 0.06
13004 H 66.56863552348642 30.20391097567287 165.83970194288102 H 0.0 **** 0.06
13005 H 64.97521621234432 30.655946698120047 165.18693021010586 H 0.0 **** 0.06
13006 C 38.89565009982442 174.44274157925253 36.9739953809766 C 0.0 **** -0.24
13007 H 39.7936257117324 174.64348165247418 37.55848626302601 H 0.0 **** 0.06
13008 H 39.053815136472195 173.5573773079612 36.3576640516185 H 0.0 **** 0.06
13009 H 38.68171850038817 175.29829681805336 36.33335986161882 H 0.0 **** 0.06
13010 H 38.05492260399973 174.27252341220725 37.64592647601833 H 0.0 **** 0.06
13011 C 106.6934149480977 125.70391072611854 134.88653116355573 C 0.0 **** -0.24
13012 H 106.23229713038104 125.73088896565791 133.8987326412115 H 0.0 **** 0.06
13013 H 107.58618245883618 126.32906212375805 134.8876531156725 H 0.0 **** 0.06
13014 H 106.96661224160444 124.67741173793921 135.13233890454575 H 0.0 **** 0.06
13015 H 105.98612158744349 126.07822227553031 135.62750981493872 H 0.0 **** 0.06
13016 C 128.34671240625528 180.91633833671008 181.89212445555208 C 0.0 **** -0.24
13017 H 127.98400947946551 181.66698058045841 181.1897326997084 H 0.0 **** 0.06
13018 H 127.70308413567427 180.0364851464182 181.8460328521168 H 0.0 **** 0.06
13019 H 128.33145247483526 181.325769765121 182.90189590909873 H 0.0 **** 0.06
13020 H 129.36604228924335 180.63514469845074 181.62820196280438 H 0.0 **** 0.06
13021 C 115.54347016053514 180.59637781594787 55.066671880230786 C 0.0 **** -0.24
13022 H 115.50861319681916 179.70801269461515 54.43568869700954 H 0.0 **** 0.06
13023 H 116.24991143124795 181.31269072197267 54.646782699588016 H 0.0 **** 0.06
13024 H 115.86114405059992 180.31568594781942 56.07032855036141 H 0.0 **** 0.06
13025 H 114.5522101728938 181.04785569929635 55.11234168602101 H 0.0 **** 0.06
13026 C 92.13055605876251 8.210135164062251 40.22566097148686 C 0.0 **** -0.24
13027 H 91.7284181100819 8.130245969191805 39.216555869085624 H 0.0 **** 0.06
13028 H 93.20558350478224 8.38695875855592 40.174977591705954 H 0.0 **** 0.06
13029 H 91.9389714360435 7.284357033824762 40.76823866230677 H 0.0 **** 0.06
13030 H 91.65003255533473 9.0408279783355 40.743856888352326 H 0.0 **** 0.06
13031 C 155.36609112490976 12.66239653681805 31.45747554852926 C 0.0 **** -0.24
13032 H 154.77626341037777 12.721368879401723 32.37154822812113 H 0.0 **** 0.06
13033 H 156.04686294093437 13.513165113372878 31.408937272631306 H 0.0 **** 0.06
13034 H 154.69971025458358 12.680022867321497 30.594165493962237 H 0.0 **** 0.06
13035 H 155.940430984192 11.735674339918972 31.454634153354448 H 0.0 **** 0.06
13036 C 144.96018825373875 140.8176076946374 58.21655095399554 C 0.0 **** -0.24
13037 H 144.32739290192893 140.83926482879355 59.103928765488675 H 0.0 **** 0.06
13038 H 144.80487424411888 141.72914106050098 57.63786287836514 H 0.0 **** 0.06
13039 H 144.702868671234 139.9514585239147 57.607679386038626 H 0.0 **** 0.06
13040 H 146.00605389284635 140.75307199600047 58.51797024721684 H 0.0 **** 0.06
13041 C 158.5583237827783 32.01545773672106 33.127852943416514 C 0.0 **** -0.24
13042 H 157.83934158994126 32.134684086921 33.939646696700095 H 0.0 **** 0.06
13043 H 158.06733542715065 31.548038480068442 32.274044974869526 H 0.0 **** 0.06
13044 H 159.38262464780064 31.38536348084139 33.46317174142874 H 0.0 **** 0.06
13045 H 158.94208034998567 32.9931104538102 32.837182319165976 H 0.0 **** 0.06
13046 C 135.44418746827387 84.81276770559964 18.0154740916048 C 0.0 **** -0.24
13047 H 135.92647776956323 85.2601987195162 18.885197003704135 H 0.0 **** 0.06
13048 H 134.45906149987138 84.44195239149829 18.29631775183949 H 0.0 **** 0.06
13049 H 136.0531587236594 83.9865487798657 17.647511213950445 H 0.0 **** 0.06
13050 H 135.33991039257575 85.56386802261626 17.232318312197762 H 0.0 **** 0.06
13051 C 147.70693899821035 138.27361694397536 184.3810232397558 C 0.0 **** -0.24
13052 H 146.85069895097018 138.85170702980622 184.03390338927227 H 0.0 **** 0.06
13053 H 147.78819671386503 137.35841849809123 183.79431090867985 H 0.0 **** 0.06
13054 H 147.57195496771277 138.02045803447686 185.43309750884413 H 0.0 **** 0.06
13055 H 148.6159187551084 138.86356840355757 184.26374392099558 H 0.0 **** 0.06
13056 C 173.7740910331242 168.1051251806025 182.92288153530637 C 0.0 **** -0.24
13057 H 174.22939505427527 169.0538991909051 182.63924535195923 H 0.0 **** 0.06
13058 H 174.46106318955276 167.29027233923728 182.69414048126993 H 0.0 **** 0.06
13059 H 172.84673896451784 167.967781211816 182.36566149897283 H 0.0 **** 0.06
13060 H 173.5575728055769 168.11080025324605 183.99130140693944 H 0.0 **** 0.06
13061 C 145.09522727333385 93.95481765093422 29.8617844161746 C 0.0 **** -0.24
13062 H 145.39344020082706 94.01468020696404 28.816011573071705 H 0.0 **** 0.06
13063 H 145.4650512007882 93.02402404978352 30.292889879041482 H 0.0 **** 0.06
13064 H 144.00739389999887 93.97959254710452 29.93094463823796 H 0.0 **** 0.06
13065 H 145.51281718014047 94.80020357119548 30.408024896505424 H 0.0 **** 0.06
13066 C 118.09724459577167 174.5093714474109 60.93143014805469 C 0.0 **** -0.24
13067 H 117.0674803318547 174.17296700667237 60.80856033686686 H 0.0 **** 0.06
13068 H 118.77688189727029 173.71958195212488 60.611198891392846 H 0.0 **** 0.06
13069 H 118.28060346255616 174.74343110118647 61.98071704873003 H 0.0 **** 0.06
13070 H 118.26242281066673 175.3997500996482 60.32586896776324 H 0.0 **** 0.06
13071 C 84.86401190719549 144.30324834222 145.80434334379476 C 0.0 **** -0.24
13072 H 85.07297727952677 144.14253675338955 144.74733029339484 H 0.0 **** 0.06
13073 H 83.98242868547003 144.93475056482964 145.90908254785984 H 0.0 **** 0.06
13074 H 85.71908922939612 144.7905151389856 146.2733648961248 H 0.0 **** 0.06
13075 H 84.68266984697854 143.3430116801149 146.28764550963513 H 0.0 **** 0.06
13076 C 82.13941040245173 79.56729128570592 51.30006238788498 C 0.0 **** -0.24
13077 H 82.81340141117722 80.42391642383646 51.2741998309031 H 0.0 **** 0.06
13078 H 82.02805256632442 79.16275538732283 50.2933551130247 H 0.0 **** 0.06
13079 H 81.165908660635 79.88365692173923 51.67473892578329 H 0.0 **** 0.06
13080 H 82.55086082365514 78.80086130199516 51.95670611843988 H 0.0 **** 0.06
13081 C 149.34870388862296 29.065426853641682 175.1423090340063 C 0.0 **** -0.24
13082 H 148.88208848808887 30.029921657254846 174.94055121023982 H 0.0 **** 0.06
13083 H 149.1343204134049 28.76694223766026 176.1691318304666 H 0.0 **** 0.06
13084 H 150.42712816672594 29.148892464917935 175.0052909800663 H 0.0 **** 0.06
13085 H 148.95090988749132 28.318986919990948 174.45554583209963 H 0.0 **** 0.06
13086 C 147.78374622862344 110.34757847719847 6.7675023482926235 C 0.0 **** -0.24
13087 H 148.01293370228143 110.62696447797744 5.739597729805439 H 0.0 **** 0.06
13088 H 146.7441565185304 110.02456151399188 6.832561317371045 H 0.0 **** 0.06
13089 H 147.93939533159173 111.20622549005402 7.420524570931718 H 0.0 **** 0.06
13090 H 148.43759338205007 109.53255711549387 7.076902458782968 H 0.0 **** 0.06
13091 C 156.26873408654387 100.08434924518035 165.04418811071673 C 0.0 **** -0.24
13092 H 156.434684118017 101.02790680811624 165.56359841478388 H 0.0 **** 0.06
13093 H 155.39616315113005 99.58468391734583 165.4666486663405 H 0.0 **** 0.06
13094 H 157.14487507748117 99.44664348878011 165.16169000595573 H 0.0 **** 0.06
13095 H 156.09921399954715 100.27816276647918 163.9848153557867 H 0.0 **** 0.06
13096 C 131.99171862895776 85.25407830751418 49.7614110706117 C 0.0 **** -0.24
13097 H 131.44959503556032 84.3353404934636 49.53519606746896 H 0.0 **** 0.06
13098 H 131.28253479714357 86.03924268135755 50.02089811990997 H 0.0 **** 0.06
13099 H 132.568386315589 85.55816913701646 48.887387884205154 H 0.0 **** 0.06
13100 H 132.6661714697238 85.08064830088234 50.5992497978404 H 0.0 **** 0.06
13101 C 96.12414026358648 153.94021519002501 55.695020829742546 C 0.0 **** -0.24
13102 H 96.91921572088945 153.85840214539334 54.95423071510571 H 0.0 **** 0.06
13103 H 95.88009217036883 154.9912206656757 55.85231800596722 H 0.0 **** 0.06
13104 H 96.45646500464231 153.49974921900935 56.63469169845453 H 0.0 **** 0.06
13105 H 95.23912656891618 153.41131096134836 55.33838727604456 H 0.0 **** 0.06
13106 C 71.5872074808725 84.62529482832022 139.50343136671518 C 0.0 **** -0.24
13107 H 71.62513610674318 84.96587353699755 140.5378282483024 H 0.0 **** 0.06
13108 H 71.50991947461445 83.5380821646624 139.48146409980092 H 0.0 **** 0.06
13109 H 72.49459973776771 84.93569220441462 138.985401325809 H 0.0 **** 0.06
13110 H 70.71917460436451 85.06153140720629 139.00903179294824 H 0.0 **** 0.06
13111 C 34.20171165663119 21.663550962643967 6.604526829982433 C 0.0 **** -0.24
13112 H 34.95901640212554 22.259312503446495 7.1147327572769825 H 0.0 **** 0.06
13113 H 34.54991827744966 21.413399959375425 5.602347210297296 H 0.0 **** 0.06
13114 H 33.275916792939356 22.234522172629582 6.536562857233207 H 0.0 **** 0.06
13115 H 34.02215221044051 20.746869198429266 7.167458748347002 H 0.0 **** 0.06
13116 C 70.62440278571506 63.442920373555 138.4972971711328 C 0.0 **** -0.24
13117 H 70.00525530648125 64.31116751381964 138.72271603311447 H 0.0 **** 0.06
13118 H 70.07538212502688 62.76562226170756 137.84294027240458 H 0.0 **** 0.06
13119 H 70.87783605427707 62.928330799056695 139.4242947534849 H 0.0 **** 0.06
13120 H 71.53815418464818 63.76849542823733 137.99977668214012 H 0.0 **** 0.06
13121 C 43.56721976207149 14.374406756734345 93.77868826298739 C 0.0 **** -0.24
13122 H 44.039612231492924 13.731702447947612 93.03614743793027 H 0.0 **** 0.06
13123 H 42.66517198738907 13.891510969327015 94.1552660749097 H 0.0 **** 0.06
13124 H 43.30503874408839 15.327284842622191 93.31837223792378 H 0.0 **** 0.06
13125 H 44.25890154382506 14.547172196055982 94.60252304687431 H 0.0 **** 0.06
13126 C 5.110596533243722 103.27793783726707 126.89511576566748 C 0.0 **** -0.24
13127 H 5.851767176578164 102.55438527230967 127.23455814069406 H 0.0 **** 0.06
13128 H 4.975660882963723 104.04427310259598 127.65860447009895 H 0.0 **** 0.06
13129 H 4.162624469352664 102.77113263391442 126.71672631540876 H 0.0 **** 0.06
13130 H 5.4535804548490034 103.74279118107245 125.96970514807329 H 0.0 **** 0.06
13131 C 153.66499465557155 117.97288943799641 83.71006702956714 C 0.0 **** -0.24
13132 H 153.26445878692698 118.25995865689232 82.73802092209155 H 0.0 **** 0.06
13133 H 152.98341644333894 118.30108326190155 84.49585348769648 H 0.0 **** 0.06
13134 H 154.63863555458704 118.44299558049859 83.85436539994248 H 0.0 **** 0.06
13135 H 153.77571039189164 116.8898529630841 83.7527561021883 H 0.0 **** 0.06
13136 C 26.92559266141862 176.28839345078828 3.0985540535950804 C 0.0 **** -0.24
13137 H 26.496808547959944 175.45275707180988 2.5457707508539613 H 0.0 **** 0.06
13138 H 26.12459076607729 176.88482845036964 3.5340590374958083 H 0.0 **** 0.06
13139 H 27.513573245999055 176.90834296782992 2.420828575953095 H 0.0 **** 0.06
13140 H 27.56841648119658 175.90755263819284 3.89156928139235 H 0.0 **** 0.06
13141 C 165.6704602179608 82.79287242256544 52.2443945402494 C 0.0 **** -0.24
13142 H 165.22709809368 81.86349047357686 52.60191178989186 H 0.0 **** 0.06
13143 H 166.61429572876406 82.57566836025882 51.743726685122624 H 0.0 **** 0.06
13144 H 165.8511580439507 83.45739213911133 53.08957453097747 H 0.0 **** 0.06
13145 H 164.98880438364748 83.27406445926755 51.54233618447637 H 0.0 **** 0.06
13146 C 23.776480085489027 100.38266307663389 111.94221693368995 C 0.0 **** -0.24
13147 H 22.831475344020376 99.91436246137778 112.22009455332356 H 0.0 **** 0.06
13148 H 23.667596725010156 100.87135789316108 110.97296299199725 H 0.0 **** 0.06
13149 H 24.553949885799994 99.62200272524717 111.8807444071311 H 0.0 **** 0.06
13150 H 24.049671326983955 101.1235831972449 112.69359652170156 H 0.0 **** 0.06
13151 C 48.791508024262725 117.12846633877768 167.96944661968465 C 0.0 **** -0.24
13152 H 49.26185018867852 116.47181104803514 168.70185187557666 H 0.0 **** 0.06
13153 H 49.5249627663332 117.41352883637819 167.2149044484986 H 0.0 **** 0.06
13154 H 48.41881570150554 118.02170313871483 168.46944140166372 H 0.0 **** 0.06
13155 H 47.963110058743496 116.60558168876145 167.49195650930545 H 0.0 **** 0.06
13156 C 67.194239726164 6.514115483312878 86.30657874285258 C 0.0 **** -0.24
13157 H 68.06812076291159 5.883283561844507 86.14324354006634 H 0.0 **** 0.06
13158 H 66.88434146732651 6.440655603693131 87.34960180531833 H 0.0 **** 0.06
13159 H 66.38178494902716 6.1826177248688055 85.66114726217494 H 0.0 **** 0.06
13160 H 67.44471057587741 7.548510484672022 86.07375763454077 H 0.0 **** 0.06
13161 C 88.9990328748731 7.994880771304352 57.2397936139738 C 0.0 **** -0.24
13162 H 88.53144184630342 8.317667614821204 56.31003147943866 H 0.0 **** 0.06
13163 H 90.01804503936627 8.377905233991427 57.286663783166034 H 0.0 **** 0.06
13164 H 89.01872907296779 6.905192092144532 57.27745039724459 H 0.0 **** 0.06
13165 H 88.42783022354895 8.37735513417337 58.08518478669674 H 0.0 **** 0.06
13166 C 122.88228407827076 3.5763219779371056 124.16740829089086 C 0.0 **** -0.24
13167 H 122.56254746713178 4.565870000463562 124.49424399533048 H 0.0 **** 0.06
13168 H 123.01410584707595 2.931384952234751 125.03617386150525 H 0.0 **** 0.06
13169 H 123.82673765625235 3.660385235717392 123.62914702736312 H 0.0 **** 0.06
13170 H 122.1265581454834 3.1501557497829182 123.50863671474157 H 0.0 **** 0.06
13171 C 37.75214600799478 26.06172959625627 147.74527415737757 C 0.0 **** -0.24
13172 H 36.83003638161347 25.653784457592224 147.3326509202053 H 0.0 **** 0.06
13173 H 38.374212881386654 26.444246539519582 146.936235870504 H 0.0 **** 0.06
13174 H 38.29019403536853 25.276041888687786 148.27767021543337 H 0.0 **** 0.06
13175 H 37.51569221403548 26.87135737900067 148.43571374217606 H 0.0 **** 0.06
13176 C 66.07806120339865 85.06514353898694 88.27349304109735 C 0.0 **** -0.24
13177 H 65.19179894421796 85.50199577416049 87.81334122454858 H 0.0 **** 0.06
13178 H 66.9155500960837 85.75775659843862 88.17789533949353 H 0.0 **** 0.06
13179 H 66.32313342746198 84.12827496384847 87.7729960425652 H 0.0 **** 0.06
13180 H 65.88387710732403 84.87283866392352 89.32853840876977 H 0.0 **** 0.06
13181 C 143.08660054719104 78.9475990794167 172.5850955167607 C 0.0 **** -0.24
13182 H 143.48120609344818 79.61894126747507 171.82301384798203 H 0.0 **** 0.06
13183 H 142.27297674278827 79.44004380088495 173.11828674056744 H 0.0 **** 0.06
13184 H 143.87991312281446 78.69132570540643 173.28885366597524 H 0.0 **** 0.06
13185 H 142.71471095049748 78.0392703501305 172.11182562336515 H 0.0 **** 0.06
13186 C 31.929348747565143 179.50949633371178 10.013011306398539 C 0.0 **** -0.24
13187 H 30.997547145481974 180.0729916173709 10.046792569182514 H 0.0 **** 0.06
13188 H 32.06022256047157 179.0805316278671 9.019448679040863 H 0.0 **** 0.06
13189 H 31.897564437018104 178.71000603109755 10.752905464634011 H 0.0 **** 0.06
13190 H 32.764211861685 180.17459441202385 10.234062189523627 H 0.0 **** 0.06
13191 C 68.50911541664658 87.98442243538027 9.510148560873013 C 0.0 **** -0.24
13192 H 68.0303110037537 87.65837846577732 8.586661671778913 H 0.0 **** 0.06
13193 H 69.59093371637589 87.89134246172456 9.412262607745532 H 0.0 **** 0.06
13194 H 68.16447631972157 87.36245168596766 10.337089717434296 H 0.0 **** 0.06
13195 H 68.24881246123792 89.02464618600582 9.706707183345436 H 0.0 **** 0.06
13196 C 52.18861693721372 47.520139866360495 26.895164418736158 C 0.0 **** -0.24
13197 H 52.895319925847886 48.32524342775798 26.693341449988694 H 0.0 **** 0.06
13198 H 52.73532259377566 46.595420776978926 27.08379350027515 H 0.0 **** 0.06
13199 H 51.53550999916236 47.386487698683084 26.032533675211766 H 0.0 **** 0.06
13200 H 51.589971035844485 47.773299934981765 27.769490100761203 H 0.0 **** 0.06
13201 C 110.56109527884045 48.21532007055808 85.36881202474837 C 0.0 **** -0.24
13202 H 110.50970215920812 47.139184272118314 85.20349459601164 H 0.0 **** 0.06
13203 H 110.01876245500641 48.731301389660445 84.57676610450443 H 0.0 **** 0.06
13204 H 111.60404103856776 48.53386492353445 85.36394273137375 H 0.0 **** 0.06
13205 H 110.11331362475342 48.45609858206075 86.3333340197139 H 0.0 **** 0.06
13206 C 183.38129791713337 122.73021396655616 144.99624832899485 C 0.0 **** -0.24
13207 H 184.41206423527134 122.40937765685487 145.14735169289892 H 0.0 **** 0.06
13208 H 182.92588942331403 122.12855515345416 144.20848936498624 H 0.0 **** 0.06
13209 H 183.3670537657231 123.78049362889908 144.70530487367017 H 0.0 **** 0.06
13210 H 182.82097494074804 122.6016557335858 145.9216618991751 H 0.0 **** 0.06
13211 C 5.917062443619386 149.63666259855444 17.37026597157557 C 0.0 **** -0.24
13212 H 6.679827852487051 148.86399005130335 17.464830346114766 H 0.0 **** 0.06
13213 H 6.29238968076109 150.44395450480272 16.74225834521755 H 0.0 **** 0.06
13214 H 5.6732460206292785 150.02874193588178 18.35821624154513 H 0.0 **** 0.06
13215 H 5.021651249225442 149.20957738083095 16.918508983174107 H 0.0 **** 0.06
13216 C 101.45949206322497 39.96006040328723 180.238885206725 C 0.0 **** -0.24
13217 H 102.178822588791 39.285910382721184 179.7724479204827 H 0.0 **** 0.06
13218 H 100.67520051505694 40.204725486951006 179.52141453277991 H 0.0 **** 0.06
13219 H 101.96600375585852 40.8734370321516 180.54960917419578 H 0.0 **** 0.06
13220 H 101.01777258536659 39.47399863717395 181.10829259360017 H 0.0 **** 0.06
13221 C 88.03766428606946 118.17382024832848 26.021934365375103 C 0.0 **** -0.24
13222 H 88.75482966937778 117.86211302058307 25.26259334844633 H 0.0 **** 0.06
13223 H 88.31170284170338 119.15979693483585 26.39733709405465 H 0.0 **** 0.06
13224 H 88.04516831518117 117.45656253900752 26.844193140657126 H 0.0 **** 0.06
13225 H 87.04007853247481 118.21539378728978 25.585268983804838 H 0.0 **** 0.06
13226 C 113.51885852072921 139.28338076036488 54.34435733188022 C 0.0 **** -0.24
13227 H 114.3925091736961 139.9198279929994 54.48653971772828 H 0.0 **** 0.06
13228 H 113.83941863237858 138.2470047931223 54.23182081748109 H 0.0 **** 0.06
13229 H 112.98244475132769 139.59790183691837 53.45038861441952 H 0.0 **** 0.06
13230 H 112.86289630319978 139.36818609242277 55.210976047373265 H 0.0 **** 0.06
13231 C 150.3502472298632 46.96712055573971 162.60121456103917 C 0.0 **** -0.24
13232 H 150.85571065434527 46.01580656091272 162.43991132597853 H 0.0 **** 0.06
13233 H 150.43388519139924 47.57995296421308 161.70358017066263 H 0.0 **** 0.06
13234 H 150.81272304051492 47.4863474457934 163.44052554036284 H 0.0 **** 0.06
13235 H 149.29768275569967 46.78655744205602 162.82183726908812 H 0.0 **** 0.06
13236 C 162.40799413672104 117.68677749515928 22.829827842506347 C 0.0 **** -0.24
13237 H 162.25810260036152 117.41160620887587 21.78619733547714 H 0.0 **** 0.06
13238 H 161.44124430124108 117.77163209866308 23.325297110119266 H 0.0 **** 0.06
13239 H 162.92994978650455 118.64272832282825 22.882664401034617 H 0.0 **** 0.06
13240 H 163.00464216207462 116.92014728316138 23.325549184027636 H 0.0 **** 0.06
13241 C 90.67423907191706 16.293527513559496 171.7638125527331 C 0.0 **** -0.24
13242 H 90.85118581433231 17.340234011758724 171.51703590712742 H 0.0 **** 0.06
13243 H 90.91603529228574 15.671352749093302 170.9015124084304 H 0.0 **** 0.06
13244 H 89.62601688275207 16.15576728079901 172.02894595723706 H 0.0 **** 0.06
13245 H 91.30299248511356 16.00771160454309 172.60650689315068 H 0.0 **** 0.06
13246 C 96.52817230358751 122.03849561779391 59.54000208174341 C 0.0 **** -0.24
13247 H 97.25207176474127 121.24424570918528 59.356666255281425 H 0.0 **** 0.06
13248 H 95.65912643622899 121.62493724752868 60.05273119564072 H 0.0 **** 0.06
13249 H 96.21734160146933 122.47247696597155 58.59068928869766 H 0.0 **** 0.06
13250 H 96.98521162311475 122.80883272569069 60.16075416779722 H 0.0 **** 0.06
13251 C 111.99059794355499 99.35054270586615 172.08243598773066 C 0.0 **** -0.24
13252 H 112.9154198488131 99.15839300009124 171.53702115780618 H 0.0 **** 0.06
13253 H 112.17834125183258 99.26849696810633 173.15377456677524 H 0.0 **** 0.06
13254 H 111.23770328880157 98.62064365388208 171.78755069159652 H 0.0 **** 0.06
13255 H 111.63500595785025 100.35450625043323 171.8508071842958 H 0.0 **** 0.06
13256 C 173.60753595314725 130.34026471395634 150.38372163357658 C 0.0 **** -0.24
13257 H 172.52085457142806 130.43078980695117 150.38939350568722 H 0.0 **** 0.06
13258 H 174.01667614219676 130.92068838913536 149.55706571060662 H 0.0 **** 0.06
13259 H 173.88314960911197 129.29237389024757 150.26310526062133 H 0.0 **** 0.06
13260 H 174.00830460519046 130.7150487435306 151.32532971134003 H 0.0 **** 0.06
13261 C 185.1276553418789 181.51033423794655 36.59416285936038 C 0.0 **** -0.24
13262 H 184.1870930511687 181.2091623618345 37.05504726298676 H 0.0 **** 0.06
13263 H 185.61367971112827 182.2598903954231 37.219681262599295 H 0.0 **** 0.06
13264 H 184.93074402063814 181.93210329017296 35.60916279267144 H 0.0 **** 0.06
13265 H 185.77860641772384 180.64185128685943 36.4941607532009 H 0.0 **** 0.06
13266 C 107.53575985177046 39.245142217390594 23.75484919442036 C 0.0 **** -0.24
13267 H 108.20939005455334 39.22922315141409 24.610983686867257 H 0.0 **** 0.06
13268 H 108.113805747435 39.37777828499361 22.83955196739055 H 0.0 **** 0.06
13269 H 106.83195737168778 40.070724755046456 23.86228715232309 H 0.0 **** 0.06
13270 H 106.98781139625696 38.30374623031531 23.70548859455755 H 0.0 **** 0.06
13271 C 24.57906675858412 58.43964219191297 28.28309971020562 C 0.0 **** -0.24
13272 H 23.756368774674172 58.609022801015456 28.978307317957942 H 0.0 **** 0.06
13273 H 25.37185684314406 57.88669111337157 28.78736091321997 H 0.0 **** 0.06
13274 H 24.965622081805023 59.39857144788746 27.93848250490909 H 0.0 **** 0.06
13275 H 24.22025814932158 57.864222582268454 27.43055587972522 H 0.0 **** 0.06
13276 C 142.65978691358964 40.2080069947373 94.24771627628671 C 0.0 **** -0.24
13277 H 142.32756465215334 40.0553212508716 93.22095496447555 H 0.0 **** 0.06
13278 H 141.79919777645677 40.18216987495907 94.91634259154192 H 0.0 **** 0.06
13279 H 143.15457558408048 41.17629858413761 94.3296122933926 H 0.0 **** 0.06
13280 H 143.35986308394678 39.418942739228385 94.52449118488637 H 0.0 **** 0.06
13281 C 37.01436412365848 168.71677913854535 124.79405050604738 C 0.0 **** -0.24
13282 H 36.93978312203484 169.8032698277608 124.8532286681472 H 0.0 **** 0.06
13283 H 36.22776224529139 168.33409891728576 124.14406690191878 H 0.0 **** 0.06
13284 H 36.90315947286024 168.29009074083038 125.79062458129106 H 0.0 **** 0.06
13285 H 37.98791817486682 168.44151652176598 124.3878555085386 H 0.0 **** 0.06
13286 C 64.1315524057289 8.052230190862836 51.26920262909552 C 0.0 **** -0.24
13287 H 65.15505079155307 7.722668594088006 51.09270460693429 H 0.0 **** 0.06
13288 H 63.48062225457633 7.643149924088348 50.495187973145136 H 0.0 **** 0.06
13289 H 64.08945460941351 9.141213623765502 51.24011256980701 H 0.0 **** 0.06
13290 H 63.80031322441049 7.7010338033661725 52.24569432293029 H 0.0 **** 0.06
13291 C 19.790307273287134 182.29401744683847 147.04373982995452 C 0.0 **** -0.24
13292 H 18.779976009591145 182.64240383741873 146.82937326653143 H 0.0 **** 0.06
13293 H 20.49093397841385 182.7705189146989 146.35850854135612 H 0.0 **** 0.06
13294 H 19.83511425178132 181.21236482935754 146.91659694156726 H 0.0 **** 0.06
13295 H 20.052524338216003 182.55006211132775 148.0699360521279 H 0.0 **** 0.06
13296 C 1.2658042107840402 168.70812079361485 153.28075240280384 C 0.0 **** -0.24
13297 H 0.7326516422402278 168.19850313708605 154.08356468167685 H 0.0 **** 0.06
13298 H 0.5546660325151436 169.02883423136961 152.5194241242143 H 0.0 **** 0.06
13299 H 1.9911804266047284 168.02596135937063 152.83690758182854 H 0.0 **** 0.06
13300 H 1.783729481574369 169.5782266331709 153.68456376011522 H 0.0 **** 0.06
13301 C 78.69522821373897 151.88952921390842 37.150239624487114 C 0.0 **** -0.24
13302 H 79.42474054878909 151.3642589716605 36.53279382172633 H 0.0 **** 0.06
13303 H 77.70139454294542 151.76812647224665 36.718438290576 H 0.0 **** 0.06
13304 H 78.94804865665293 152.94878879517415 37.19016846814057 H 0.0 **** 0.06
13305 H 78.70685879134402 151.4739704227146 38.15809179421075 H 0.0 **** 0.06
13306 C 55.23676249941457 93.17584210308542 131.49712759417434 C 0.0 **** -0.24
13307 H 55.36545965370965 92.12777817891782 131.2251102443417 H 0.0 **** 0.06
13308 H 54.176454469608075 93.42896118944412 131.4762472327921 H 0.0 **** 0.06
13309 H 55.7753593676473 93.80371850796263 130.7872135136838 H 0.0 **** 0.06
13310 H 55.63054578649371 93.34172383602612 132.4999383138105 H 0.0 **** 0.06
13311 C 79.01968425567588 123.00109982731453 164.63984567500793 C 0.0 **** -0.24
13312 H 80.09356917542613 122.86822434232289 164.76923514941168 H 0.0 **** 0.06
13313 H 78.59515871730792 123.42603598873228 165.55057216602788 H 0.0 **** 0.06
13314 H 78.55544701521183 122.0369190774154 164.43841188726537 H 0.0 **** 0.06
13315 H 78.83565725986011 123.67610800521584 163.8046933774587 H 0.0 **** 0.06
13316 C 113.46989561367634 151.73265682644444 183.72473041140606 C 0.0 **** -0.24
13317 H 113.94891928448301 152.57744196550883 183.22905937889107 H 0.0 **** 0.06
13318 H 114.11096802504663 150.85460550619086 183.6451351220724 H 0.0 **** 0.06
13319 H 112.51148941857475 151.5276988851123 183.24655659589246 H 0.0 **** 0.06
13320 H 113.30800469521857 151.97231946294346 184.77554557517723 H 0.0 **** 0.06
13321 C 86.88437638020031 65.34295248808247 180.27602749765222 C 0.0 **** -0.24
13322 H 87.6301815891481 64.72290476706257 179.780119501856 H 0.0 **** 0.06
13323 H 86.44202946371064 64.7869809525053 181.10321323422883 H 0.0 **** 0.06
13324 H 86.10622592163321 65.61516756587886 179.56259832051543 H 0.0 **** 0.06
13325 H 87.35906854630923 66.2467566668833 180.65817893400865 H 0.0 **** 0.06
13326 C 66.11140173808629 127.7612748309043 88.49700636794562 C 0.0 **** -0.24
13327 H 66.06264142796627 128.74978967425255 88.04137035513956 H 0.0 **** 0.06
13328 H 65.6408469527133 127.03267981674493 87.83552703707544 H 0.0 **** 0.06
13329 H 65.58677974524036 127.77625837079255 89.45254528991298 H 0.0 **** 0.06
13330 H 67.15322768636334 127.48603291287229 88.6592374619534 H 0.0 **** 0.06
13331 C 83.368121806604 26.936634758888815 149.29430429812132 C 0.0 **** -0.24
13332 H 84.44318025267916 27.02926138232405 149.45037166768154 H 0.0 **** 0.06
13333 H 83.11106353848076 25.88671825050156 149.1507258941947 H 0.0 **** 0.06
13334 H 83.07926474269748 27.505716003185427 148.41138671083644 H 0.0 **** 0.06
13335 H 82.84043814604736 27.324103971205915 150.16588328497815 H 0.0 **** 0.06
13336 C 14.294676433836841 86.49724119391742 7.968665990452962 C 0.0 **** -0.24
13337 H 14.783346042487324 87.37291190006083 8.394484216872513 H 0.0 **** 0.06
13338 H 14.619186964471226 85.60406964060734 8.50324608107124 H 0.0 **** 0.06
13339 H 14.561902490668786 86.40756123275601 6.9161912501664915 H 0.0 **** 0.06
13340 H 13.214082469273144 86.60347877852941 8.06101645155843 H 0.0 **** 0.06
13341 C 12.445035960145312 26.3871478320562 113.25989805628215 C 0.0 **** -0.24
13342 H 13.183567913216265 27.056698534047655 112.82001767113563 H 0.0 **** 0.06
13343 H 12.935946914614114 25.47459736666903 113.59674286326238 H 0.0 **** 0.06
13344 H 11.689213199107911 26.13857181528286 112.51334575552987 H 0.0 **** 0.06
13345 H 11.968521774447709 26.87899704658659 114.10874431992194 H 0.0 **** 0.06
13346 C 44.047890028182906 101.84434555136716 122.76420865997528 C 0.0 **** -0.24
13347 H 43.82840856991493 101.46092501506405 121.7682855108576 H 0.0 **** 0.06
13348 H 43.33078256187056 102.62584192138843 123.01816279459825 H 0.0 **** 0.06
13349 H 45.05640421514477 102.25785358769355 122.78013372752253 H 0.0 **** 0.06
13350 H 43.97600566986401 101.03449237207076 123.49019683473892 H 0.0 **** 0.06
13351 C 106.04961426816784 28.548091981141965 3.784617301292741 C 0.0 **** -0.24
13352 H 105.41862980602473 28.19875139314877 4.602139249453586 H 0.0 **** 0.06
13353 H 105.42273364892934 28.932645122169674 2.9804239654269793 H 0.0 **** 0.06
13354 H 106.65194327849098 27.71963642136953 3.411442383390721 H 0.0 **** 0.06
13355 H 106.70529056233038 29.3402624548267 4.145374683055024 H 0.0 **** 0.06
13356 C 26.37408446111357 132.01199439442598 144.61816428511324 C 0.0 **** -0.24
13357 H 26.06396611655842 132.62751575576146 143.77346585340163 H 0.0 **** 0.06
13358 H 27.459826367632104 132.0438469610263 144.71115514177558 H 0.0 **** 0.06
13359 H 26.05322545055691 130.9826937174293 144.4540636894982 H 0.0 **** 0.06
13360 H 25.918535311411404 132.39262137285033 145.53205017845679 H 0.0 **** 0.06
13361 C 98.65359257905494 179.10032416258875 51.238380657780525 C 0.0 **** -0.24
13362 H 98.48654694598493 179.97646665061876 51.864278764508924 H 0.0 **** 0.06
13363 H 98.01264425549935 179.15561072259936 50.35839031135586 H 0.0 **** 0.06
13364 H 98.41754226558034 178.19936134468196 51.80450132480547 H 0.0 **** 0.06
13365 H 99.69686042575186 179.0704819204957 50.926263741247894 H 0.0 **** 0.06
13366 C 37.47440257301986 150.76379355600653 161.9444380294459 C 0.0 **** -0.24
13367 H 36.56596115043365 150.49947182315796 162.48466440669395 H 0.0 **** 0.06
13368 H 37.22843692454194 151.4473640153122 161.13210886039337 H 0.0 **** 0.06
13369 H 37.92896804531834 149.8607668385249 161.53496106664272 H 0.0 **** 0.06
13370 H 38.1752395655367 151.24615571631446 162.6259493091918 H 0.0 **** 0.06
13371 C 146.27412413623904 25.402838804648894 66.60110856399211 C 0.0 **** -0.24
13372 H 145.76357366367824 25.72711477037211 65.69407510996126 H 0.0 **** 0.06
13373 H 146.54667805294514 26.274710958133113 67.19542890088691 H 0.0 **** 0.06
13374 H 147.17428726497974 24.849530701484866 66.33249944274283 H 0.0 **** 0.06
13375 H 145.61096136893553 24.75933904786274 67.18054070650425 H 0.0 **** 0.06
13376 C 119.2362795540909 55.5934775813252 55.021545959986156 C 0.0 **** -0.24
13377 H 119.34777434219485 55.373347921025086 53.958774929065214 H 0.0 **** 0.06
13378 H 119.9217805351587 56.39470447988188 55.29934309562533 H 0.0 **** 0.06
13379 H 119.46390224538816 54.70030795822181 55.602963439807084 H 0.0 **** 0.06
13380 H 118.21087996624085 55.905240162953106 55.22106575778662 H 0.0 **** 0.06
13381 C 65.91229958562246 112.60270329298295 14.351711374678821 C 0.0 **** -0.24
13382 H 64.8289229088507 112.70751956223323 14.414376372172008 H 0.0 **** 0.06
13383 H 66.33318995415488 112.5793205443105 15.356609326444925 H 0.0 **** 0.06
13384 H 66.32659942290022 113.44751876488671 13.802355567445836 H 0.0 **** 0.06
13385 H 66.15709615476203 111.67575665640418 13.833355387324744 H 0.0 **** 0.06
13386 C 154.89871408219045 85.31621114900355 65.32675340718407 C 0.0 **** -0.24
13387 H 154.9961347514679 85.33738578469206 64.24161922412617 H 0.0 **** 0.06
13388 H 155.85474353855693 85.57571463868356 65.78267555815523 H 0.0 **** 0.06
13389 H 154.60363360808878 84.31629402648576 65.64515822769886 H 0.0 **** 0.06
13390 H 154.14039298739513 86.03446830386451 65.63737717209312 H 0.0 **** 0.06
13391 C 31.41741488728995 122.47766104895923 95.88870250454666 C 0.0 **** -0.24
13392 H 31.100614933590663 121.89816987265691 96.75637418899335 H 0.0 **** 0.06
13393 H 32.420012961619534 122.16996214990264 95.59267744223207 H 0.0 **** 0.06
13394 H 31.422285092498512 123.53815656577028 96.14283422570928 H 0.0 **** 0.06
13395 H 30.72459554772371 122.30511499750868 95.06487267073489 H 0.0 **** 0.06
13396 C 95.08431765664064 50.17274669751268 41.920337308145236 C 0.0 **** -0.24
13397 H 96.02085042383 50.618651445420284 41.583907939788844 H 0.0 **** 0.06
13398 H 94.54050585395318 49.77944572771294 41.06252707971811 H 0.0 **** 0.06
13399 H 94.47991607490196 50.931420389087165 42.4175176780991 H 0.0 **** 0.06
13400 H 95.29848489928811 49.363225553425295 42.618252257840254 H 0.0 **** 0.06
13401 C 52.97736605616224 141.88864723661192 157.03465284286486 C 0.0 **** -0.24
13402 H 52.81910777468167 142.9670450104477 157.00910026461287 H 0.0 **** 0.06
13403 H 53.84278349979124 141.6634378232299 157.65772003515258 H 0.0 **** 0.06
13404 H 53.154084438893605 141.52404342820574 156.02268790143074 H 0.0 **** 0.06
13405 H 52.09487102776774 141.40077555800616 157.44749675089122 H 0.0 **** 0.06
13406 C 76.70982886509405 114.31897824068285 124.07413129132173 C 0.0 **** -0.24
13407 H 76.66066666841196 115.27634585216676 124.59211843190853 H 0.0 **** 0.06
13408 H 77.57837004583564 113.76040739630521 124.42523701672185 H 0.0 **** 0.06
13409 H 76.79831464171046 114.49109933545616 123.00101434412558 H 0.0 **** 0.06
13410 H 75.80393002334185 113.74932457017049 124.2774224801362 H 0.0 **** 0.06
13411 C 69.4074464377656 0.6420524664664526 35.12949041135316 C 0.0 **** -0.24
13412 H 69.41970888205782 -0.3233863419552563 35.63585679640204 H 0.0 **** 0.06
13413 H 69.37429135710852 0.48506938518096376 34.051182743924315 H 0.0 **** 0.06
13414 H 70.30781155746365 1.19899056413675 35.3891150890786 H 0.0 **** 0.06
13415 H 68.52925591152356 1.2057821488311333 35.44293831329972 H 0.0 **** 0.06
13416 C 148.29213496817783 90.97690587208733 162.31794778437632 C 0.0 **** -0.24
13417 H 148.8111980789419 90.44088316385857 163.1119096740893 H 0.0 **** 0.06
13418 H 147.49651948985507 90.34911215947137 161.91633050852 H 0.0 **** 0.06
13419 H 148.9971470103526 91.22303023851616 161.5237040004713 H 0.0 **** 0.06
13420 H 147.86229054580525 91.89451542704855 162.71957178734664 H 0.0 **** 0.06
13421 C 145.08300462133062 9.06883406642848 54.258480019289564 C 0.0 **** -0.24
13422 H 145.383938199118 8.348505337429977 55.019281485443244 H 0.0 **** 0.06
13423 H 144.82900103597345 8.540680306418736 53.338765836409266 H 0.0 **** 0.06
13424 H 145.90355366594437 9.760061224166947 54.06656951763851 H 0.0 **** 0.06
13425 H 144.21404181251293 9.625271053080453 54.60966213536071 H 0.0 **** 0.06
13426 C 27.830887116308915 46.8219171799571 164.32386482071553 C 0.0 **** -0.24
13427 H 27.74061993573109 46.58448505217444 163.26383218620074 H 0.0 **** 0.06
13428 H 27.15056805596987 47.63709386906504 164.57282332163442 H 0.0 **** 0.06
13429 H 28.855069133263072 47.12420024570406 164.54146191838117 H 0.0 **** 0.06
13430 H 27.577712358627394 45.9423496041677 164.91519448151877 H 0.0 **** 0.06
13431 C 63.08740770062593 172.62530972368327 8.225490001381893 C 0.0 **** -0.24
13432 H 64.09838900745476 172.83122681455689 8.575561830851036 H 0.0 **** 0.06
13433 H 62.95671518319921 173.0427188244231 7.227269853750379 H 0.0 **** 0.06
13434 H 62.36694406840144 173.07882657621985 8.907391770478242 H 0.0 **** 0.06
13435 H 62.92708230466474 171.54740365440585 8.19335514168641 H 0.0 **** 0.06
13436 C 147.96067788408277 103.21881832519948 124.24737276568885 C 0.0 **** -0.24
13437 H 148.85603430023804 102.97657838068146 123.67434652249528 H 0.0 **** 0.06
13438 H 147.70164685420028 102.37571199453318 124.88912820612285 H 0.0 **** 0.06
13439 H 147.13656097405578 103.42473268260004 123.56529364483873 H 0.0 **** 0.06
13440 H 148.15182712959916 104.09870450599853 124.86307210834082 H 0.0 **** 0.06
13441 C 36.98480092415605 143.37623797617505 6.641704899461303 C 0.0 **** -0.24
13442 H 37.9919602120645 142.98230077943384 6.504599016065043 H 0.0 **** 0.06
13443 H 37.02551392803028 144.26568531741293 7.271027757365346 H 0.0 **** 0.06
13444 H 36.361125503191175 142.62063630214521 7.118423285471181 H 0.0 **** 0.06
13445 H 36.56229180785894 143.63722533290166 5.6704567050213655 H 0.0 **** 0.06
13446 C 163.51002625877337 63.00436057040514 51.420971372675695 C 0.0 **** -0.24
13447 H 162.84306365806862 62.91563987860437 50.56324187047272 H 0.0 **** 0.06
13448 H 163.58804378366926 64.05171675874342 51.7130341223031 H 0.0 **** 0.06
13449 H 164.49654997362305 62.62571967598328 51.154925552474594 H 0.0 **** 0.06
13450 H 163.1092018061448 62.42336225011633 52.25200752800578 H 0.0 **** 0.06
13451 C 70.20163924304939 86.19251256918419 35.47259433692709 C 0.0 **** -0.24
13452 H 69.20667322552802 85.880816423442 35.15307668929509 H 0.0 **** 0.06
13453 H 70.3950952869011 87.20542293242518 35.11986680522705 H 0.0 **** 0.06
13454 H 70.94516063921083 85.51318870023066 35.05616623000475 H 0.0 **** 0.06
13455 H 70.25712975865059 86.16938895268187 36.56077881383847 H 0.0 **** 0.06
13456 C 76.09110587977362 170.51220245617822 90.72466173387835 C 0.0 **** -0.24
13457 H 76.62835811471267 171.45933091802277 90.77594605393875 H 0.0 **** 0.06
13458 H 76.14048647943734 170.12112199340442 89.70764156149511 H 0.0 **** 0.06
13459 H 75.0497641205645 170.67072959616024 91.00232666332226 H 0.0 **** 0.06
13460 H 76.54707338801849 169.79897530732688 91.4114681358135 H 0.0 **** 0.06
13461 C 68.09785009600454 96.34912819097006 11.778680566325392 C 0.0 **** -0.24
13462 H 67.47223531164212 95.5271074178202 11.429906471150076 H 0.0 **** 0.06
13463 H 67.61771237325013 97.29732715589266 11.539075001501857 H 0.0 **** 0.06
13464 H 69.069415967973 96.29917301583116 11.287239220511253 H 0.0 **** 0.06
13465 H 68.23228377896912 96.27090918589583 12.857524269167158 H 0.0 **** 0.06
13466 C 42.094005782400785 123.79510268578998 79.6389427336843 C 0.0 **** -0.24
13467 H 41.591225924339454 124.40647676562874 78.88928112780513 H 0.0 **** 0.06
13468 H 42.647784966708684 124.44013834356592 80.3209742385908 H 0.0 **** 0.06
13469 H 42.78250551825316 123.1094099247269 79.14579782902871 H 0.0 **** 0.06
13470 H 41.35179274956782 123.22529602011143 80.19882000917323 H 0.0 **** 0.06
13471 C 63.383311697682515 105.7501017828913 7.622241626552039 C 0.0 **** -0.24
13472 H 64.42315405736035 105.80824993952888 7.943472097870881 H 0.0 **** 0.06
13473 H 63.28992253923086 106.16246254474834 6.6171040965738825 H 0.0 **** 0.06
13474 H 62.76004975534707 106.32269027669759 8.308731479609264 H 0.0 **** 0.06
13475 H 63.06108214140043 104.70901253682769 7.619865036014119 H 0.0 **** 0.06
13476 C 7.721294264201063 101.07128947200418 180.8966733797388 C 0.0 **** -0.24
13477 H 6.9390882877438 100.57500771338543 180.3218711524578 H 0.0 **** 0.06
13478 H 8.671131518555413 100.56230097645268 180.73152109980157 H 0.0 **** 0.06
13479 H 7.470541058541215 101.03838662320037 181.95641795690386 H 0.0 **** 0.06
13480 H 7.804946426466692 102.10925646901335 180.57450076493546 H 0.0 **** 0.06
13481 C 45.24881320148282 130.46225401856515 9.853980044637922 C 0.0 **** -0.24
13482 H 45.237909432918 131.47166901713064 9.442056693811097 H 0.0 **** 0.06
13483 H 46.26952335396274 130.07949548528865 9.848143941311207 H 0.0 **** 0.06
13484 H 44.61451828418723 129.81605384440093 9.247097305777594 H 0.0 **** 0.06
13485 H 44.873312507234516 130.48305252408647 10.876518546223934 H 0.0 **** 0.06
13486 C 178.80957080944765 184.06583120607735 143.51831794120505 C 0.0 **** -0.24
13487 H 177.82312625066183 183.7756553980488 143.88083071427513 H 0.0 **** 0.06
13488 H 178.84844055255593 185.14911689540116 143.40011623413614 H 0.0 **** 0.06
13489 H 178.99673769469453 183.58910160288792 142.55683899074563 H 0.0 **** 0.06
13490 H 179.56684981127196 183.7507080840332 144.23469231385377 H 0.0 **** 0.06
13491 C 86.38193544404436 183.1186301671332 30.777080997867984 C 0.0 **** -0.24
13492 H 85.30681462211788 183.00535647310363 30.913765431260003 H 0.0 **** 0.06
13493 H 86.9059218302304 182.38873013697767 31.394454940707377 H 0.0 **** 0.06
13494 H 86.68143026005515 184.12488124345236 31.069894909345436 H 0.0 **** 0.06
13495 H 86.63379952634529 182.9554755532165 29.728222823447496 H 0.0 **** 0.06
13496 C 30.431236844968225 88.45595357478608 182.38105394639842 C 0.0 **** -0.24
13497 H 30.30233949815772 89.53855034080932 182.36125237703595 H 0.0 **** 0.06
13498 H 29.9588086738911 88.01767807922128 181.5022294109354 H 0.0 **** 0.06
13499 H 29.96905251242171 88.05254548828403 183.2821343682076 H 0.0 **** 0.06
13500 H 31.494811265437875 88.21730198367673 182.38056971848374 H 0.0 **** 0.06
13501 C 140.7388152451091 136.6719219344663 55.30668648448213 C 0.0 **** -0.24
13502 H 140.34675007875728 136.49870189222895 56.308589709047126 H 0.0 **** 0.06
13503 H 141.82652302891552 136.6003338385837 55.32483300408161 H 0.0 **** 0.06
13504 H 140.44580806869737 137.66535228539283 54.968560368145916 H 0.0 **** 0.06
13505 H 140.33706775961576 135.9221992309637 54.62478531996018 H 0.0 **** 0.06
13506 C 9.9044963061517 140.83840270126734 157.94435273528637 C 0.0 **** -0.24
13507 H 9.787931638128775 141.47678675076014 158.82050447048337 H 0.0 **** 0.06
13508 H 10.917677758904148 140.9370817096874 157.55543867519165 H 0.0 **** 0.06
13509 H 9.189376001523925 141.13921056945208 157.17835472435516 H 0.0 **** 0.06
13510 H 9.72134522771234 139.80104743087736 158.2245260562913 H 0.0 **** 0.06
13511 C 90.94053799718836 42.30947426234428 158.04016035119668 C 0.0 **** -0.24
13512 H 90.96428013207691 42.06057209657203 159.1007561122034 H 0.0 **** 0.06
13513 H 89.90644511394606 42.45111881707962 157.7236226293256 H 0.0 **** 0.06
13514 H 91.38746847235188 41.496695854568856 157.46705495877006 H 0.0 **** 0.06
13515 H 91.5027838412471 43.22737406424079 157.86944737466274 H 0.0 **** 0.06
13516 C 95.42365856961341 45.63530527317005 31.203156674468943 C 0.0 **** -0.24
13517 H 95.45336800512239 46.20982146568318 32.128782326726224 H 0.0 **** 0.06
13518 H 96.40843780198965 45.64804476207553 30.73615032464771 H 0.0 **** 0.06
13519 H 94.69365621868697 46.07657479171485 30.52517059590079 H 0.0 **** 0.06
13520 H 95.13994940400023 44.60559976525809 31.424256376597043 H 0.0 **** 0.06
13521 C 80.70497028819446 154.24326900324317 116.47349407422873 C 0.0 **** -0.24
13522 H 81.11899552941998 155.22849769718613 116.25791602581695 H 0.0 **** 0.06
13523 H 81.4744615245234 153.61863673078724 116.92754267631044 H 0.0 **** 0.06
13524 H 80.36163078637901 153.7823561917198 115.54706882529685 H 0.0 **** 0.06
13525 H 79.86650327902896 154.34521062998982 117.1621081390705 H 0.0 **** 0.06
13526 C 126.1936522101039 23.57065376186449 153.07417381319527 C 0.0 **** -0.24
13527 H 125.31102646046101 23.63954426485938 153.71018423163798 H 0.0 **** 0.06
13528 H 126.9815733940804 23.034967593762687 153.6033419271837 H 0.0 **** 0.06
13529 H 126.5400595890453 24.573039414500315 152.8226518601711 H 0.0 **** 0.06
13530 H 125.94024126307077 23.034268490129563 152.15931310519474 H 0.0 **** 0.06
13531 C 105.63264308949243 125.03840065412533 96.56941910766223 C 0.0 **** -0.24
13532 H 106.25158948334541 124.93590153331598 95.67808322571015 H 0.0 **** 0.06
13533 H 104.58434291418587 124.90680015241855 96.30109389958476 H 0.0 **** 0.06
13534 H 105.7772314249899 126.02923580797022 96.99919027480583 H 0.0 **** 0.06
13535 H 105.91948753174194 124.27978812967024 97.29823437076372 H 0.0 **** 0.06
13536 C 132.38528418998442 33.158663663726486 50.611188951085666 C 0.0 **** -0.24
13537 H 131.89706825971297 34.03213602506517 50.17953910344124 H 0.0 **** 0.06
13538 H 133.42400422195726 33.12343274538958 50.282345757237806 H 0.0 **** 0.06
13539 H 131.86928734324886 32.25594646166833 50.28386605978588 H 0.0 **** 0.06
13540 H 132.34995152026102 33.222814974095385 51.69854287928595 H 0.0 **** 0.06
13541 C 63.322803375350645 30.94098989111825 132.3722934135737 C 0.0 **** -0.24
13542 H 63.46564574353266 31.993680648826285 132.61867039791338 H 0.0 **** 0.06
13543 H 64.15126987296452 30.35830571488833 132.7758349748542 H 0.0 **** 0.06
13544 H 63.28793550671688 30.8230636409898 131.28959771488383 H 0.0 **** 0.06
13545 H 62.38556136263361 30.590656874619697 132.8065889253562 H 0.0 **** 0.06
13546 C 44.5026111269307 53.91589417672523 2.5142706404807313 C 0.0 **** -0.24
13547 H 44.51606395427605 53.168347664532774 3.3070275900910246 H 0.0 **** 0.06
13548 H 45.33167826223931 54.60980415609458 2.6549227018156785 H 0.0 **** 0.06
13549 H 43.560299375531415 54.463843076531745 2.5486939071795973 H 0.0 **** 0.06
13550 H 44.601253517148294 53.422995354923785 1.547263512461484 H 0.0 **** 0.06
13551 C 145.6936258081661 114.16907359915194 34.3658491613993 C 0.0 **** -0.24
13552 H 146.3594881102245 115.03016688203576 34.42217068677974 H 0.0 **** 0.06
13553 H 146.08181213660686 113.3691259420221 34.996427853360984 H 0.0 **** 0.06
13554 H 145.6342481534856 113.82231648152901 33.33348672784081 H 0.0 **** 0.06
13555 H 144.7002621726059 114.45514538559576 34.71103023746673 H 0.0 **** 0.06
13556 C 26.042061011885167 44.08058743190551 183.51546447698405 C 0.0 **** -0.24
13557 H 25.75813138261698 43.57693683047019 182.59206241283178 H 0.0 **** 0.06
13558 H 27.03236514702371 44.52350596255641 183.39743344169284 H 0.0 **** 0.06
13559 H 26.062393037875665 43.35854475932841 184.3320937467711 H 0.0 **** 0.06
13560 H 25.31853422628798 44.864293095771075 183.74011706981082 H 0.0 **** 0.06
13561 C 159.47862161043597 98.93324789713772 17.500137419698092 C 0.0 **** -0.24
13562 H 158.74443685007986 99.64253141376246 17.883716645068148 H 0.0 **** 0.06
13563 H 158.9643044572714 98.11971499818286 16.987565009322623 H 0.0 **** 0.06
13564 H 160.06136633455793 98.53034216403411 18.328044359809155 H 0.0 **** 0.06
13565 H 160.1425223507988 99.44052252849873 16.8004892180125 H 0.0 **** 0.06
13566 C 162.9266352615227 30.92342384238387 94.72919492552926 C 0.0 **** -0.24
13567 H 162.73028412345363 30.6212054173987 95.75824771116443 H 0.0 **** 0.06
13568 H 163.80516385758892 31.569929238001123 94.7024423227728 H 0.0 **** 0.06
13569 H 162.0645201563158 31.464654240105986 94.33960339388618 H 0.0 **** 0.06
13570 H 163.1066578390461 30.03901851755407 94.11908557107584 H 0.0 **** 0.06
13571 C 129.0659001197423 37.60071593571479 85.55144042500673 C 0.0 **** -0.24
13572 H 128.9769406964228 37.5444770491772 86.63583783577873 H 0.0 **** 0.06
13573 H 129.8956801873635 36.975280722627474 85.22172660276938 H 0.0 **** 0.06
13574 H 129.2483371886098 38.63368000919513 85.25462346230579 H 0.0 **** 0.06
13575 H 128.14155912058322 37.248366910852155 85.09226804219391 H 0.0 **** 0.06
13576 C 20.01357608304886 47.34827261336045 149.04046338686936 C 0.0 **** -0.24
13577 H 19.558886708764298 47.06036839417857 148.0931935898879 H 0.0 **** 0.06
13578 H 20.08697367988976 48.434880993841944 149.0921683207076 H 0.0 **** 0.06
13579 H 21.01039235055282 46.91317433986623 149.11184393840435 H 0.0 **** 0.06
13580 H 19.3987807143455 46.985904998293336 149.86368067375324 H 0.0 **** 0.06
13581 C 53.49293110685767 117.27868440196067 68.59876396549731 C 0.0 **** -0.24
13582 H 53.867243461059786 116.45538257905679 69.2073851443742 H 0.0 **** 0.06
13583 H 53.24009131187813 118.12127174942026 69.24273754810258 H 0.0 **** 0.06
13584 H 52.60331589708096 116.95521792894209 68.05818410386894 H 0.0 **** 0.06
13585 H 54.2603890630661 117.58214695115396 67.88687203253971 H 0.0 **** 0.06
13586 C 144.37281616904096 53.177019094831735 76.94818397864816 C 0.0 **** -0.24
13587 H 144.0255268202572 54.20995181696085 76.94751344834702 H 0.0 **** 0.06
13588 H 145.43086158643212 53.1499723415684 77.20976139311631 H 0.0 **** 0.06
13589 H 144.23186860422405 52.7453652080535 75.95785875914225 H 0.0 **** 0.06
13590 H 143.80367084289992 52.60242212986347 77.67879692912112 H 0.0 **** 0.06
13591 C 26.77700374419311 91.91088184034923 161.49787932247676 C 0.0 **** -0.24
13592 H 27.736820402673402 92.36852135149208 161.73406014868112 H 0.0 **** 0.06
13593 H 26.11734147550851 91.98225447399706 162.36290765267768 H 0.0 **** 0.06
13594 H 26.92883881925627 90.86217562858612 161.24200677659576 H 0.0 **** 0.06
13595 H 26.325187723133524 92.42945491559313 160.65169811487544 H 0.0 **** 0.06
13596 C 69.44843356693055 14.327137419729382 104.88409178335733 C 0.0 **** -0.24
13597 H 68.68494403376337 15.096511088475722 104.99985990319375 H 0.0 **** 0.06
13598 H 69.99741752282061 14.21647180576764 105.81971143034623 H 0.0 **** 0.06
13599 H 70.1374633770256 14.616860097744024 104.09102618531266 H 0.0 **** 0.06
13600 H 68.97368552617758 13.380805349143543 104.62650829617068 H 0.0 **** 0.06
13601 C 43.103622952436595 69.08277698111591 182.03435434325036 C 0.0 **** -0.24
13602 H 42.275901897068636 68.92316225617729 182.72579224481626 H 0.0 **** 0.06
13603 H 42.72569982275215 69.52216432928182 181.1109626385272 H 0.0 **** 0.06
13604 H 43.58150121341713 68.12783851176583 181.8133740828058 H 0.0 **** 0.06
13605 H 43.830640042928195 69.7559594440801 182.48799943645162 H 0.0 **** 0.06
13606 C 49.75002052997796 165.20998408610777 66.49220676617335 C 0.0 **** -0.24
13607 H 49.00824553906189 165.23199689899053 67.29029927420402 H 0.0 **** 0.06
13608 H 49.764794854342426 166.17419095760405 65.9834305796831 H 0.0 **** 0.06
13609 H 49.49335542378023 164.42645988774677 65.77974680282301 H 0.0 **** 0.06
13610 H 50.73396613069137 165.00754760727872 66.91671226738012 H 0.0 **** 0.06
13611 C 4.284887788670936 108.59972981564802 42.340979427986156 C 0.0 **** -0.24
13612 H 4.645714708326494 107.58324695092811 42.49525146542328 H 0.0 **** 0.06
13613 H 3.6546886813021686 108.63117580436413 41.45176650842751 H 0.0 **** 0.06
13614 H 5.134441301862523 109.27017424008774 42.2077972717384 H 0.0 **** 0.06
13615 H 3.7059177518193778 108.91549822507328 43.208715197564004 H 0.0 **** 0.06
13616 C 52.49973553571739 15.444688269263963 34.58029506353711 C 0.0 **** -0.24
13617 H 52.17282557597629 14.650467682757927 35.250947644862265 H 0.0 **** 0.06
13618 H 53.24665357468625 15.053448662116267 33.889064716832024 H 0.0 **** 0.06
13619 H 52.93409457206191 16.25733814561783 35.163197102928734 H 0.0 **** 0.06
13620 H 51.64367849938586 15.818810043839171 34.017319351717845 H 0.0 **** 0.06
13621 C 67.32819362339075 145.47252202424983 142.93491253863795 C 0.0 **** -0.24
13622 H 66.80594842497842 144.85372513895675 143.66439504226963 H 0.0 **** 0.06
13623 H 68.08850302829228 144.87654019601592 142.42982082480432 H 0.0 **** 0.06
13624 H 67.8020841588272 146.3120825588034 143.4433259805591 H 0.0 **** 0.06
13625 H 66.61482513446975 145.84909564777428 142.20170310528727 H 0.0 **** 0.06
13626 C 183.8768276199284 14.953912272099956 100.59456694541872 C 0.0 **** -0.24
13627 H 184.92038563402832 15.264082985125697 100.54004937560411 H 0.0 **** 0.06
13628 H 183.74384277331177 14.272342489886427 101.43518400715551 H 0.0 **** 0.06
13629 H 183.5992097267969 14.449120825703034 99.66921173474618 H 0.0 **** 0.06
13630 H 183.244954470521 15.830677540106564 100.73452886151303 H 0.0 **** 0.06
13631 C 109.8421334069085 8.491116233454818 111.44588805816007 C 0.0 **** -0.24
13632 H 110.41619869167188 8.020848771059349 112.24474533263167 H 0.0 **** 0.06
13633 H 110.5247568605394 8.943409625459765 110.72584410554425 H 0.0 **** 0.06
13634 H 109.19506925248488 9.260261725647439 111.86759714681104 H 0.0 **** 0.06
13635 H 109.2331049455603 7.73778525346421 110.94635614981893 H 0.0 **** 0.06
13636 C 170.80713812038366 93.66421704646307 135.96953060016278 C 0.0 **** -0.24
13637 H 171.55316158967418 93.85826458154615 136.74035477426037 H 0.0 **** 0.06
13638 H 169.91257144200404 94.25286485152314 136.1742391651435 H 0.0 **** 0.06
13639 H 170.55272646497477 92.6040300187684 135.9682838130658 H 0.0 **** 0.06
13640 H 171.21057764372034 93.94216977105422 134.99598800231882 H 0.0 **** 0.06
13641 C 84.9509133629495 99.27968884215089 176.36699040256514 C 0.0 **** -0.24
13642 H 84.17352188939019 100.04228246513158 176.32806985617947 H 0.0 **** 0.06
13643 H 84.9701138021319 98.83125856802785 177.36017920142342 H 0.0 **** 0.06
13644 H 85.9177511608642 99.736099999791 176.15590776574763 H 0.0 **** 0.06
13645 H 84.74209205575825 98.51036424987548 175.62444298623626 H 0.0 **** 0.06
13646 C 173.33413371494555 119.52434511846117 154.0244364530357 C 0.0 **** -0.24
13647 H 173.84773218639586 119.56247830282815 153.06357806435676 H 0.0 **** 0.06
13648 H 174.06934762566877 119.46092244478673 154.82671597785298 H 0.0 **** 0.06
13649 H 172.685909397005 118.6477858360182 154.05503801270183 H 0.0 **** 0.06
13650 H 172.73385019469444 120.42491837832118 154.15128221115341 H 0.0 **** 0.06
13651 C 115.42557651715167 63.32120169581435 181.89244806598083 C 0.0 **** -0.24
13652 H 115.01465714007036 63.98130174296605 182.65619118462737 H 0.0 **** 0.06
13653 H 116.47834952148123 63.55863222104102 181.7365149619292 H 0.0 **** 0.06
13654 H 114.87933737012914 63.4598512186019 180.96009060374266 H 0.0 **** 0.06
13655 H 115.33138157616945 62.2849528422945 182.21899058979182 H 0.0 **** 0.06
13656 C 37.07424653867156 116.36739360763387 118.63473542264448 C 0.0 **** -0.24
13657 H 36.34038550857905 115.58197132412882 118.82136404289723 H 0.0 **** 0.06
13658 H 38.006452303260886 115.9190797198976 118.29143318334725 H 0.0 **** 0.06
13659 H 37.255050422421306 116.92043360685572 119.55710254468387 H 0.0 **** 0.06
13660 H 36.693115404564494 117.04597203795869 117.87272774990971 H 0.0 **** 0.06
13661 C 170.72159940997085 45.90923939656665 152.34847375119375 C 0.0 **** -0.24
13662 H 171.8080705483584 45.98652601109825 152.39045719084618 H 0.0 **** 0.06
13663 H 170.44211311657747 45.02757248111928 151.77046141486016 H 0.0 **** 0.06
13664 H 170.3117057194729 46.79986535458724 151.87281955632238 H 0.0 **** 0.06
13665 H 170.32482257767484 45.82166252305285 153.3590942334239 H 0.0 **** 0.06
13666 C 105.25475497606008 115.57524960750254 12.799595820435485 C 0.0 **** -0.24
13667 H 105.73925075124232 116.2102309247943 12.058446097068867 H 0.0 **** 0.06
13668 H 105.83436974886975 114.65972492808692 12.927801517936473 H 0.0 **** 0.06
13669 H 104.24880331290429 115.32527899264494 12.461805475974842 H 0.0 **** 0.06
13670 H 105.19765577994731 116.10485422470492 13.750106195155297 H 0.0 **** 0.06
13671 C 167.05520458126847 11.014675572387034 97.37682019299517 C 0.0 **** -0.24
13672 H 167.25921196434157 10.33515479786442 96.54907694877438 H 0.0 **** 0.06
13673 H 167.39387913438128 10.562177626954536 98.30893849265057 H 0.0 **** 0.06
13674 H 165.9841031920516 11.20591615222125 97.43380433609111 H 0.0 **** 0.06
13675 H 167.58475731201264 11.95335663526842 97.21489699360741 H 0.0 **** 0.06
13676 C 141.09633734049373 86.10023038203472 131.56668095256947 C 0.0 **** -0.24
13677 H 140.1190758573539 85.71264280595993 131.85655033174936 H 0.0 **** 0.06
13678 H 141.25196690409263 87.07480823207784 132.02965592267446 H 0.0 **** 0.06
13679 H 141.14052169488036 86.20109806200772 130.4832582448796 H 0.0 **** 0.06
13680 H 141.87273760713038 85.41136386287347 131.89988346501883 H 0.0 **** 0.06
13681 C 120.80296114456716 96.99386678458409 43.830150958360434 C 0.0 **** -0.24
13682 H 120.2012681336456 96.26372149979515 43.28940634828976 H 0.0 **** 0.06
13683 H 121.6542907827915 97.28838590192727 43.217654701990455 H 0.0 **** 0.06
13684 H 121.15950411350737 96.55209867728821 44.76113991460163 H 0.0 **** 0.06
13685 H 120.19472911896229 97.87101578225823 44.05433356029987 H 0.0 **** 0.06
13686 C 79.16375263292804 87.28664815501644 35.84582389303617 C 0.0 **** -0.24
13687 H 79.58409280324895 86.59306854919764 35.11708398601331 H 0.0 **** 0.06
13688 H 79.66367796545717 87.15213922776054 36.80540786087562 H 0.0 **** 0.06
13689 H 78.09761635257928 87.09023135728056 35.95978984974897 H 0.0 **** 0.06
13690 H 79.30943133999887 88.30978757375821 35.49956560342213 H 0.0 **** 0.06
13691 C 110.5423995865611 13.405406960132773 3.056900741843805 C 0.0 **** -0.24
13692 H 110.08851405334748 12.44344119324176 3.2971010199842112 H 0.0 **** 0.06
13693 H 110.6700190643276 13.486794504576594 1.9771138562867918 H 0.0 **** 0.06
13694 H 111.51367639767848 13.48025520069794 3.5453937797076662 H 0.0 **** 0.06
13695 H 109.89650067109595 14.209089506862725 3.408133254016491 H 0.0 **** 0.06
13696 C 26.12918597448555 101.47100939718779 32.516208868952276 C 0.0 **** -0.24
13697 H 27.08210992800855 101.16788164894054 32.08177143420687 H 0.0 **** 0.06
13698 H 25.33842243500868 101.35378879987827 31.774155125142215 H 0.0 **** 0.06
13699 H 26.186934553261466 102.51459614166698 32.824413596734104 H 0.0 **** 0.06
13700 H 25.910891641176732 100.84647586008323 33.38190384068656 H 0.0 **** 0.06
13701 C 174.8077088345996 5.464022692698052 143.99773212257253 C 0.0 **** -0.24
13702 H 173.9165595145168 4.996865818258186 144.4187864491603 H 0.0 **** 0.06
13703 H 174.68933440441126 5.562676371274648 142.91864023063852 H 0.0 **** 0.06
13704 H 175.67857894501483 4.845295274518293 144.2137297865475 H 0.0 **** 0.06
13705 H 174.9430854853353 6.450269497763088 144.44031401913048 H 0.0 **** 0.06
13706 C 116.27450622564099 53.73915235391706 66.72657823364992 C 0.0 **** -0.24
13707 H 115.58284443681511 54.41021830639724 67.23545720764511 H 0.0 **** 0.06
13708 H 115.80946575433221 52.76026916968725 66.60850434717369 H 0.0 **** 0.06
13709 H 117.18528372571801 53.6400037857472 67.31887910400644 H 0.0 **** 0.06
13710 H 116.52106289457858 54.14565878180254 65.7465365727005 H 0.0 **** 0.06
13711 C 105.48647033714586 154.7391021782031 51.65723246815766 C 0.0 **** -0.24
13712 H 104.53406223933659 155.26710378298833 51.690209057250186 H 0.0 **** 0.06
13713 H 105.77425887749554 154.44603338927982 52.66701403406961 H 0.0 **** 0.06
13714 H 106.25000164449177 155.39265064364133 51.2366606173718 H 0.0 **** 0.06
13715 H 105.3864526312481 153.84974371258113 51.03513252594547 H 0.0 **** 0.06
13716 C 77.64445832216086 177.36498070398812 121.25903755174352 C 0.0 **** -0.24
13717 H 78.37253212026167 178.17349427738077 121.32275335070472 H 0.0 **** 0.06
13718 H 76.63761516801986 177.78190882006677 121.25147711026887 H 0.0 **** 0.06
13719 H 77.75868007727792 176.70419103236543 122.11872632093798 H 0.0 **** 0.06
13720 H 77.81075852367792 176.79878241133426 120.34131256147919 H 0.0 **** 0.06
13721 C 168.25358189675995 117.3994823024996 105.0157452365376 C 0.0 **** -0.24
13722 H 167.19596424939374 117.62846615565722 104.88596980172876 H 0.0 **** 0.06
13723 H 168.4247559921395 116.34321222380258 104.80368071919618 H 0.0 **** 0.06
13724 H 168.5499173135382 117.61687849810734 106.0422142293735 H 0.0 **** 0.06
13725 H 168.8447596550138 118.00759074618948 104.33029037469821 H 0.0 **** 0.06
13726 C 76.63004511874509 79.85561922947177 160.0612043984343 C 0.0 **** -0.24
13727 H 76.39899195951915 80.82320242757086 159.6144387072891 H 0.0 **** 0.06
13728 H 77.45346863472639 79.96900516598292 160.76679685998892 H 0.0 **** 0.06
13729 H 76.91560399630593 79.154095043307 159.27857596835227 H 0.0 **** 0.06
13730 H 75.75107902376396 79.47839349275499 160.5850190024035 H 0.0 **** 0.06
13731 C 123.16931183173993 36.78010549829611 19.085334811711867 C 0.0 **** -0.24
13732 H 122.15895536578053 36.71736750056954 18.679637696476505 H 0.0 **** 0.06
13733 H 123.5191082157704 35.780686895393444 19.343560107742903 H 0.0 **** 0.06
13734 H 123.16316564460051 37.40518876039309 19.978659232169854 H 0.0 **** 0.06
13735 H 123.83324853753449 37.21604592645741 18.33969728207024 H 0.0 **** 0.06
13736 C 80.86792769998058 94.18398293590555 102.30641501304854 C 0.0 **** -0.24
13737 H 81.22902081381179 94.28121477162726 101.28291069980907 H 0.0 **** 0.06
13738 H 80.54552595111826 93.15726906913311 102.48198873348315 H 0.0 **** 0.06
13739 H 80.02651919930788 94.86101631660897 102.46066464800617 H 0.0 **** 0.06
13740 H 81.66921593970753 94.43738600876092 103.00031370492798 H 0.0 **** 0.06
13741 C 148.5273273577687 112.5580001550295 49.57285197098486 C 0.0 **** -0.24
13742 H 148.74994862416006 113.62236440295942 49.498240442798135 H 0.0 **** 0.06
13743 H 147.8394803200525 112.2755998655258 48.775047531359945 H 0.0 **** 0.06
13744 H 148.06843138276912 112.35011802226745 50.53911635020165 H 0.0 **** 0.06
13745 H 149.44985314877746 111.98651364253925 49.477355053365244 H 0.0 **** 0.06
13746 C 132.56221329346522 107.95713180080547 122.00566749274854 C 0.0 **** -0.24
13747 H 132.31537209823938 108.01831139402576 120.94567841327635 H 0.0 **** 0.06
13748 H 133.5921296883542 107.61524934708676 122.11927220345437 H 0.0 **** 0.06
13749 H 131.8886571171775 107.25418083527951 122.49545455971499 H 0.0 **** 0.06
13750 H 132.45510263172042 108.94183121799414 122.4608133277704 H 0.0 **** 0.06
13751 C 152.59300385037722 83.34710438885607 142.86119417312224 C 0.0 **** -0.24
13752 H 152.630652222604 83.3677352544851 141.7725379813811 H 0.0 **** 0.06
13753 H 153.22272875651387 84.1425828053488 143.26174883388757 H 0.0 **** 0.06
13754 H 152.9529723922215 82.38263113746315 143.2192044465446 H 0.0 **** 0.06
13755 H 151.56510543654525 83.49623216858338 143.19161226678042 H 0.0 **** 0.06
13756 C 82.88112106946068 5.43752077352957 87.54161366188289 C 0.0 **** -0.24
13757 H 83.05812776257198 6.368164324103702 87.00239053758868 H 0.0 **** 0.06
13758 H 83.83484031058424 4.949725366942687 87.74708301284834 H 0.0 **** 0.06
13759 H 82.2594857903373 4.778016313926173 86.93534076002443 H 0.0 **** 0.06
13760 H 82.37403374449798 5.652805389629691 88.4813159036528 H 0.0 **** 0.06
13761 C 104.24428160976078 54.30398935720211 2.6942603219476737 C 0.0 **** -0.24
13762 H 103.570267860277 55.09039736332795 2.354051142424332 H 0.0 **** 0.06
13763 H 103.73713172527624 53.34029666227144 2.6332129188602025 H 0.0 **** 0.06
13764 H 104.53517716625157 54.496873975372495 3.7272224125556335 H 0.0 **** 0.06
13765 H 105.13249009354985 54.288197094540465 2.063404052030819 H 0.0 **** 0.06
13766 C 130.97027895610216 28.58224820559792 106.87737187764215 C 0.0 **** -0.24
13767 H 130.52450991649147 27.615689548027802 106.64258540605634 H 0.0 **** 0.06
13768 H 131.31537563745252 29.055659638818042 105.95854314350201 H 0.0 **** 0.06
13769 H 131.81337579784656 28.43839855623827 107.55300887654137 H 0.0 **** 0.06
13770 H 130.22561984354644 29.21769258470306 107.35661357797888 H 0.0 **** 0.06
13771 C 172.98280277394497 83.85297771489957 81.44157948402187 C 0.0 **** -0.24
13772 H 172.66189700038544 82.96727505780892 80.89346485601311 H 0.0 **** 0.06
13773 H 174.0712876543577 83.90340150748668 81.4434371101492 H 0.0 **** 0.06
13774 H 172.61819395318616 83.79646375112563 82.46708469382872 H 0.0 **** 0.06
13775 H 172.57796572517518 84.74370356319369 80.96001244061733 H 0.0 **** 0.06
13776 C 83.8053039233849 98.0495016692849 101.24125612793927 C 0.0 **** -0.24
13777 H 84.06583572389304 98.73093884399128 102.05078247577143 H 0.0 **** 0.06
13778 H 82.7418672785678 97.81401073216489 101.29217670416841 H 0.0 **** 0.06
13779 H 84.38547967487915 97.13242559140474 101.33705746433776 H 0.0 **** 0.06
13780 H 84.02709572128803 98.52065517189664 100.28355150471958 H 0.0 **** 0.06
13781 C 76.6378130648185 164.81838308395697 10.029241577633684 C 0.0 **** -0.24
13782 H 76.03348893864485 165.7245632014422 10.002609207392197 H 0.0 **** 0.06
13783 H 77.39531378295948 164.9092985066397 10.807902234247251 H 0.0 **** 0.06
13784 H 77.12447151894 164.67766409852874 9.06314627914253 H 0.0 **** 0.06
13785 H 75.99842410395735 163.96123225009887 10.242212437734793 H 0.0 **** 0.06
13786 C 132.94895937638825 25.28698854172069 58.638809987775275 C 0.0 **** -0.24
13787 H 132.1115222409071 25.48013406337104 57.967816520591214 H 0.0 **** 0.06
13788 H 133.11226878744486 24.21134061996942 58.714029524253434 H 0.0 **** 0.06
13789 H 132.72392500436547 25.691350618698067 59.62555676295203 H 0.0 **** 0.06
13790 H 133.84636856769043 25.765331492355514 58.246138198357244 H 0.0 **** 0.06
13791 C 162.71887481706915 135.02159531805 181.29530446761626 C 0.0 **** -0.24
13792 H 162.2158282265484 135.61902691616132 180.53522620413696 H 0.0 **** 0.06
13793 H 163.02328642905053 135.66495577117945 182.12104369341853 H 0.0 **** 0.06
13794 H 163.59820181046825 134.54630412578564 180.8608154810769 H 0.0 **** 0.06
13795 H 162.03662609737518 134.2546097790389 181.66352214862678 H 0.0 **** 0.06
13796 C 9.898628929793041 91.15884140942443 1.2616728102156642 C 0.0 **** -0.24
13797 H 9.607683458939576 91.14954422769846 2.3123671869320575 H 0.0 **** 0.06
13798 H 9.116975250483911 90.68844853002061 0.6644965825701732 H 0.0 **** 0.06
13799 H 10.831109238797303 90.60862566224945 1.138350256045932 H 0.0 **** 0.06
13800 H 10.03678361157462 92.18932019005813 0.9323793817223844 H 0.0 **** 0.06
13801 C 85.99206039645111 73.07769075406947 56.72028645575983 C 0.0 **** -0.24
13802 H 86.96807214456067 73.52246469203153 56.91403260767726 H 0.0 **** 0.06
13803 H 85.92589270515703 72.11411782225274 57.225296752279405 H 0.0 **** 0.06
13804 H 85.86483103721338 72.9351016508583 55.64704444783558 H 0.0 **** 0.06
13805 H 85.21039534464467 73.73928049895486 57.09501188142099 H 0.0 **** 0.06
13806 C 105.03325981680068 53.537964533294314 77.37617076626863 C 0.0 **** -0.24
13807 H 104.34779781050376 53.25810113356164 78.17628868586951 H 0.0 **** 0.06
13808 H 104.50268698572746 54.14097706669992 76.6380781139233 H 0.0 **** 0.06
13809 H 105.4211531443513 52.63844024350857 76.90019898810156 H 0.0 **** 0.06
13810 H 105.85892832886658 54.11588911148078 77.79081283148018 H 0.0 **** 0.06
13811 C 63.1260934783939 162.6358742326901 1.5764962652695758 C 0.0 **** -0.24
13812 H 63.289816775678304 161.68536690496268 2.084347490600294 H 0.0 **** 0.06
13813 H 64.02950703999954 163.2418205131272 1.6396815943382848 H 0.0 **** 0.06
13814 H 62.29947745060588 163.16402869974993 2.0525101124957104 H 0.0 **** 0.06
13815 H 62.884443369295525 162.45101387437126 0.5297918001463771 H 0.0 **** 0.06
13816 C 21.753012662472003 182.50115745726427 62.567501689311996 C 0.0 **** -0.24
13817 H 21.212839106811224 181.85048156422368 61.87776997026157 H 0.0 **** 0.06
13818 H 21.981041701723882 181.95105779654116 63.480348050231555 H 0.0 **** 0.06
13819 H 21.134708047347623 183.36668948479573 62.808018019159874 H 0.0 **** 0.06
13820 H 22.679740067089497 182.8333621081494 62.10143870153365 H 0.0 **** 0.06
13821 C 183.78182960084752 179.5400682657924 90.78588974994028 C 0.0 **** -0.24
13822 H 183.3982710479982 178.91585563884632 91.59328358785189 H 0.0 **** 0.06
13823 H 183.95911659552365 180.5483724548137 91.15938450879457 H 0.0 **** 0.06
13824 H 183.05318281379976 179.57381268096537 89.97609562134875 H 0.0 **** 0.06
13825 H 184.7174040103189 179.11932905614574 90.41586348984038 H 0.0 **** 0.06
13826 C 47.91767901538185 68.83197691027513 1.7858439678797495 C 0.0 **** -0.24
13827 H 48.51357268343014 68.16399865537373 2.4072328424473497 H 0.0 **** 0.06
13828 H 47.143100127166775 68.2576728181494 1.2752269109154994 H 0.0 **** 0.06
13829 H 48.56015237445666 69.31272617905086 1.047760977680099 H 0.0 **** 0.06
13830 H 47.45196007945694 69.59247370462474 2.412709874117944 H 0.0 **** 0.06
13831 C 173.56674326051288 133.16805946317373 110.24104006185223 C 0.0 **** -0.24
13832 H 172.95209220737436 133.88479721630296 109.69722353197795 H 0.0 **** 0.06
13833 H 173.90575300994405 132.3882333855563 109.55863031878567 H 0.0 **** 0.06
13834 H 172.97819106714292 132.71910261723946 111.04113282487896 H 0.0 **** 0.06
13835 H 174.42987804194945 133.67873594881695 110.66725036572495 H 0.0 **** 0.06
13836 C 44.522389765622336 10.901496344575264 21.781478524692616 C 0.0 **** -0.24
13837 H 43.56687906560279 11.39971592860445 21.618998065470493 H 0.0 **** 0.06
13838 H 45.214503260381605 11.591563703838602 22.265549127778428 H 0.0 **** 0.06
13839 H 44.93450533231669 10.584446989412129 20.82336796997204 H 0.0 **** 0.06
13840 H 44.37301798780396 10.029385521992765 22.41889924552318 H 0.0 **** 0.06
13841 C 109.60947357398243 104.79647159036371 171.56214074300246 C 0.0 **** -0.24
13842 H 108.60536985786797 104.58924191689685 171.93131676749263 H 0.0 **** 0.06
13843 H 109.9382655871911 105.76915907049725 171.92936719281664 H 0.0 **** 0.06
13844 H 109.60185298290253 104.80307646486388 170.47203493455518 H 0.0 **** 0.06
13845 H 110.29320168793686 104.02488059876721 171.91546433480968 H 0.0 **** 0.06
13846 C 116.34441108619744 171.83834682328248 36.293029435814674 C 0.0 **** -0.24
13847 H 116.2593235209206 172.46657952710865 35.40663272594236 H 0.0 **** 0.06
13848 H 116.2535482929806 170.7910565824073 36.00537954390927 H 0.0 **** 0.06
13849 H 115.54998563340938 172.09263981911417 36.99520224451828 H 0.0 **** 0.06
13850 H 117.31312586586573 172.0041748571754 36.763450608635935 H 0.0 **** 0.06
13851 C 10.098963154286167 71.77415620310865 60.40704126044001 C 0.0 **** -0.24
13852 H 10.952518561598396 72.3583532616178 60.06250194805354 H 0.0 **** 0.06
13853 H 9.854898324504774 72.05777762675866 61.43039534841732 H 0.0 **** 0.06
13854 H 10.346741907455595 70.71384716829341 60.372273852549114 H 0.0 **** 0.06
13855 H 9.2417662204779 71.96914570612442 59.76133551153379 H 0.0 **** 0.06
13856 C 36.54993968342609 164.83865715042046 27.55871136569857 C 0.0 **** -0.24
13857 H 35.66175842846815 164.90487345887954 26.93120535363549 H 0.0 **** 0.06
13858 H 37.336705038172596 165.46742350951882 27.14204783017685 H 0.0 **** 0.06
13859 H 36.89187217288526 163.80407917275593 27.59550751889772 H 0.0 **** 0.06
13860 H 36.308451662138054 165.17751111370262 28.566796640766952 H 0.0 **** 0.06
13861 C 28.386967189285826 113.1805681297458 90.17384621487533 C 0.0 **** -0.24
13862 H 27.965415390801354 112.18128171699969 90.06307563767625 H 0.0 **** 0.06
13863 H 28.00473046688947 113.82583994434653 89.38169548234247 H 0.0 **** 0.06
13864 H 29.473668701495967 113.12589838515548 90.10521372698487 H 0.0 **** 0.06
13865 H 28.104654899152877 113.58866269130182 91.14426362978826 H 0.0 **** 0.06
13866 C 64.21625455297203 101.66952650309406 166.64523744825732 C 0.0 **** -0.24
13867 H 64.20293769187322 102.10229780117237 165.6447580451548 H 0.0 **** 0.06
13868 H 65.24638877992038 101.47978412301961 166.9454900882508 H 0.0 **** 0.06
13869 H 63.65877282529948 100.73239336779551 166.6435066583037 H 0.0 **** 0.06
13870 H 63.755193056013184 102.36502182666561 167.34690113337894 H 0.0 **** 0.06
13871 C 80.73247639902434 30.70298914384034 63.80845131510348 C 0.0 **** -0.24
13872 H 80.3318133939789 31.118165605442215 62.88378704062002 H 0.0 **** 0.06
13873 H 80.75902248228135 31.480189389059916 64.57284222992263 H 0.0 **** 0.06
13874 H 81.742214881172 30.331429163453038 63.63220785733155 H 0.0 **** 0.06
13875 H 80.09637372739189 29.884160185459933 64.14406401214781 H 0.0 **** 0.06
13876 C 128.5549529384328 60.42668040587441 179.51467663716517 C 0.0 **** -0.24
13877 H 129.28588909380778 59.6235381024743 179.60866675046776 H 0.0 **** 0.06
13878 H 127.94830701031775 60.47382337573163 180.41969909617129 H 0.0 **** 0.06
13879 H 127.9120118188378 60.23231303981116 178.65553844348503 H 0.0 **** 0.06
13880 H 129.07284795407588 61.37527189540155 179.37367203591378 H 0.0 **** 0.06
13881 C 44.861335473288094 104.37310638862357 56.944751780351226 C 0.0 **** -0.24
13882 H 44.39420156850586 104.90406673155917 56.1159005461933 H 0.0 **** 0.06
13883 H 44.15330834670061 104.29483058830749 57.7703702602671 H 0.0 **** 0.06
13884 H 45.74486320705802 104.9201007881311 57.27422748600782 H 0.0 **** 0.06
13885 H 45.15211022411738 103.37454941788485 56.618444586609485 H 0.0 **** 0.06
13886 C 158.3641776070813 173.04096955527558 164.58760353638928 C 0.0 **** -0.24
13887 H 158.91313442648595 172.49101994941796 163.8232520446516 H 0.0 **** 0.06
13888 H 157.29999538616926 172.8206636048688 164.5005583508544 H 0.0 **** 0.06
13889 H 158.5259789799315 174.11050708098338 164.4523882755109 H 0.0 **** 0.06
13890 H 158.71816483460822 172.74251350615253 165.5741892567526 H 0.0 **** 0.06
13891 C 110.09278721256963 50.55742697100041 26.93384749598161 C 0.0 **** -0.24
13892 H 109.12518885068927 50.06083119251825 26.86226256009894 H 0.0 **** 0.06
13893 H 110.25303892023494 50.89548290630569 27.95684695745973 H 0.0 **** 0.06
13894 H 110.11167764596779 51.41371449349222 26.25994380522792 H 0.0 **** 0.06
13895 H 110.88125619677943 49.857913777956284 26.653911167210254 H 0.0 **** 0.06
13896 C 30.57176649935485 104.93100176863707 145.64905968686503 C 0.0 **** -0.24
13897 H 30.195805039318998 104.75293604649748 144.64162287025783 H 0.0 **** 0.06
13898 H 29.944874060740517 104.40477452016928 146.36830101961465 H 0.0 **** 0.06
13899 H 30.54924306280583 106.00116933374805 145.8604988014942 H 0.0 **** 0.06
13900 H 31.596603620434507 104.56794558128742 145.7238756833455 H 0.0 **** 0.06
13901 C 172.73285117494243 58.60578950042543 93.1630993961155 C 0.0 **** -0.24
13902 H 173.3348623738013 57.985230234448466 93.82654499783173 H 0.0 **** 0.06
13903 H 173.01724814051448 59.650788437755466 93.28662247762456 H 0.0 **** 0.06
13904 H 171.67826956327622 58.484299026839096 93.41121038189813 H 0.0 **** 0.06
13905 H 172.9006183250932 58.30211022937314 92.12983687171858 H 0.0 **** 0.06
13906 C 110.49127081821909 176.33373002162858 68.05218192670446 C 0.0 **** -0.24
13907 H 110.54986501951113 175.9609232430588 69.07525240966265 H 0.0 **** 0.06
13908 H 109.87442537701135 175.6621387577104 67.4555495236994 H 0.0 **** 0.06
13909 H 111.49425426679109 176.38180106162275 67.62617748851153 H 0.0 **** 0.06
13910 H 110.04974770318735 177.33083782580573 68.05350681070479 H 0.0 **** 0.06
13911 C 46.01440730729371 88.9434423837128 85.21607877869609 C 0.0 **** -0.24
13912 H 45.490594536605045 87.99284071611083 85.31854840566633 H 0.0 **** 0.06
13913 H 47.016541690641816 88.85365931393034 85.63370541554904 H 0.0 **** 0.06
13914 H 45.46524467792858 89.71942034311394 85.75046909084956 H 0.0 **** 0.06
13915 H 46.08235788464606 89.20850751357295 84.16113159921771 H 0.0 **** 0.06
13916 C 93.9897476336882 119.09483641988756 165.3810833173822 C 0.0 **** -0.24
13917 H 94.94547523814772 119.28893230103365 165.8666694251672 H 0.0 **** 0.06
13918 H 94.16123159854455 118.80392253148132 164.34410850886334 H 0.0 **** 0.06
13919 H 93.37768995379507 119.99566850936641 165.40937248302203 H 0.0 **** 0.06
13920 H 93.4738802065754 118.28891922498796 165.90325057050956 H 0.0 **** 0.06
13921 C 160.19664329930703 106.99425549434261 127.29927273722363 C 0.0 **** -0.24
13922 H 160.163830476076 106.87894548566845 128.38277875478337 H 0.0 **** 0.06
13923 H 161.02347985129052 107.65234192716457 127.02942284861722 H 0.0 **** 0.06
13924 H 159.25886402810858 107.42686426938354 126.95122957911128 H 0.0 **** 0.06
13925 H 160.34144509979404 106.01857750393248 126.83561418214872 H 0.0 **** 0.06
13926 C 55.77062822473739 69.49401232567666 13.71077648741641 C 0.0 **** -0.24
13927 H 54.73344508041107 69.82921257591663 13.684181408620361 H 0.0 **** 0.06
13928 H 56.280830856704654 69.95985541934456 14.554200380800182 H 0.0 **** 0.06
13929 H 56.26710550034251 69.77694394878235 12.783411760783508 H 0.0 **** 0.06
13930 H 55.79859439791504 68.40964640957814 13.822865039039414 H 0.0 **** 0.06
13931 C 177.247061270948 105.09470878925019 178.52133751862226 C 0.0 **** -0.24
13932 H 177.97477288845647 105.90590488243801 178.4933898829511 H 0.0 **** 0.06
13933 H 176.6330220681947 105.18740620879579 179.41748227489643 H 0.0 **** 0.06
13934 H 177.76958396744607 104.13835961735138 178.53539630892584 H 0.0 **** 0.06
13935 H 176.61052304127867 105.14716498390617 177.63814230255718 H 0.0 **** 0.06
13936 C 54.12818148865945 100.50881868341644 59.308261179828364 C 0.0 **** -0.24
13937 H 53.319825427941936 100.66560016398869 58.59386743930263 H 0.0 **** 0.06
13938 H 54.03723440070843 101.22727126678497 60.122391301425324 H 0.0 **** 0.06
13939 H 55.08631111373113 100.64521921285503 58.80698992080838 H 0.0 **** 0.06
13940 H 54.067967627537826 99.49709957738695 59.70733268225264 H 0.0 **** 0.06
13941 C 52.710765268626076 154.28409213111763 25.986751842761123 C 0.0 **** -0.24
13942 H 52.991155521871605 153.83324974245434 25.034774001310154 H 0.0 **** 0.06
13943 H 53.50064871264654 154.96185751713222 26.314113489215686 H 0.0 **** 0.06
13944 H 52.57158808379957 153.50161506916908 26.73168585597341 H 0.0 **** 0.06
13945 H 51.781802951093 154.84028015733603 25.86541252904638 H 0.0 **** 0.06
13946 C 80.72317348674045 50.41746317569995 119.9916698410874 C 0.0 **** -0.24
13947 H 81.39768042274774 49.78176749082172 119.41911440907165 H 0.0 **** 0.06
13948 H 81.29818745003791 51.188212122330214 120.50423139788512 H 0.0 **** 0.06
13949 H 80.18990596967932 49.81246058581738 120.72504627116774 H 0.0 **** 0.06
13950 H 80.00654460856848 50.88667547439266 119.3177253119103 H 0.0 **** 0.06
13951 C 107.21317781151576 162.24128135635945 70.51338073588295 C 0.0 **** -0.24
13952 H 107.1395097332469 163.2464060598756 70.92939122167797 H 0.0 **** 0.06
13953 H 107.21454804156987 161.51124927556637 71.32390938514447 H 0.0 **** 0.06
13954 H 108.13621111524047 162.15212521506794 69.94127581134134 H 0.0 **** 0.06
13955 H 106.36077765428412 162.05581973198287 69.85900443133403 H 0.0 **** 0.06
13956 C 47.42215064340604 147.4046322398089 40.13541865030106 C 0.0 **** -0.24
13957 H 48.41605190639561 147.23332020643312 40.548522539719045 H 0.0 **** 0.06
13958 H 46.84046075570808 146.48495247795756 40.19459096534541 H 0.0 **** 0.06
13959 H 47.51082939964829 147.71331119445813 39.09382528270788 H 0.0 **** 0.06
13960 H 46.92370524299119 148.18862286072272 40.70519250296999 H 0.0 **** 0.06
13961 C 22.0427280315142 164.8841204126058 15.788473885188864 C 0.0 **** -0.24
13962 H 22.220104844863755 164.57902926071924 16.819484653377145 H 0.0 **** 0.06
13963 H 22.193659467674138 165.96014794085195 15.698313810144441 H 0.0 **** 0.06
13964 H 21.0195574339061 164.63593787388743 15.50659675846481 H 0.0 **** 0.06
13965 H 22.738691370969633 164.3626873161586 15.13124491299709 H 0.0 **** 0.06
13966 C 63.83299552642589 139.16271283373516 77.74628768144687 C 0.0 **** -0.24
13967 H 63.182579512453515 139.81405007693508 77.16261211740435 H 0.0 **** 0.06
13968 H 63.98152793094624 139.59120119028807 78.73712126957199 H 0.0 **** 0.06
13969 H 64.79464488159198 139.06562465771339 77.24360514053515 H 0.0 **** 0.06
13970 H 63.37104674566899 138.17964403855683 77.8407516798858 H 0.0 **** 0.06
13971 C 88.11098605168566 153.1451275697117 2.055667174704432 C 0.0 **** -0.24
13972 H 89.10818919199365 153.25745689354096 1.630885621900049 H 0.0 **** 0.06
13973 H 88.01981197216504 152.16021861307075 2.5142312496754258 H 0.0 **** 0.06
13974 H 87.36571560714923 153.25102030111333 1.2672681260400367 H 0.0 **** 0.06
13975 H 87.95038743319809 153.91408259869087 2.812240796110693 H 0.0 **** 0.06
13976 C 92.711723934121 81.5984255650356 138.84655653175258 C 0.0 **** -0.24
13977 H 92.33400584856027 80.63379369484223 139.1856977538842 H 0.0 **** 0.06
13978 H 93.78905859277226 81.53390026003721 138.69407085832995 H 0.0 **** 0.06
13979 H 92.49508869714016 82.35778507029376 139.5979796358531 H 0.0 **** 0.06
13980 H 92.22764350913674 81.86747165223063 137.90698548961956 H 0.0 **** 0.06
13981 C 148.22881535631086 174.04023049565953 30.783349164317855 C 0.0 **** -0.24
13982 H 148.4417202930624 172.9859462650085 30.601451783039124 H 0.0 **** 0.06
13983 H 147.69375521482402 174.14426933567853 31.726794926283304 H 0.0 **** 0.06
13984 H 147.61582176120686 174.43156683223424 29.97181292218798 H 0.0 **** 0.06
13985 H 149.16490801087778 174.59571525176625 30.832160731661986 H 0.0 **** 0.06
13986 C 149.7198274784718 35.35063568221659 164.2302079510401 C 0.0 **** -0.24
13987 H 149.2902371666394 36.300195374995496 164.54877804862352 H 0.0 **** 0.06
13988 H 148.92249007858555 34.68259653155954 163.903167970591 H 0.0 **** 0.06
13989 H 150.25535488286474 34.89627049337659 165.06375281237843 H 0.0 **** 0.06
13990 H 150.41035349250524 35.5225740838946 163.40448924856116 H 0.0 **** 0.06
13991 C 184.1165717371639 132.29152851727224 132.0723796753789 C 0.0 **** -0.24
13992 H 184.4596502483237 131.2568088909428 132.08640836824367 H 0.0 **** 0.06
13993 H 184.97840907633582 132.95810552806915 132.0240279904121 H 0.0 **** 0.06
13994 H 183.54692952308878 132.4982814115245 132.97798628622223 H 0.0 **** 0.06
13995 H 183.48373727923598 132.45231380643662 131.19979787767528 H 0.0 **** 0.06
13996 C 164.54675713342024 158.93163967389373 73.63004250732394 C 0.0 **** -0.24
13997 H 164.43101851548494 159.49894610427037 74.55356963220558 H 0.0 **** 0.06
13998 H 163.6510860145907 159.04715482389628 73.01867118728612 H 0.0 **** 0.06
13999 H 164.69207941331734 157.87831481032663 73.8672565453446 H 0.0 **** 0.06
14000 H 165.41195349667896 159.30331750760317 73.08158176148258 H 0.0 **** 0.06
14001 C 88.37297635249446 1.7040416461859706 145.20426664746185 C 0.0 **** -0.24
14002 H 87.61567651074996 1.8765964771203585 145.96959086987616 H 0.0 **** 0.06
14003 H 88.72808094516581 0.6747012060067163 145.27055689922798 H 0.0 **** 0.06
14004 H 89.20760505709036 2.3872515201683484 145.35954234319843 H 0.0 **** 0.06
14005 H 87.94014360699019 1.8766277624753798 144.21958132903384 H 0.0 **** 0.06
14006 C 9.73358894921023 58.69450745362582 7.726745772663207 C 0.0 **** -0.24
14007 H 10.261562056008216 58.16015555422291 6.935898221301841 H 0.0 **** 0.06
14008 H 8.967505451923842 58.046737742134496 8.153339078294863 H 0.0 **** 0.06
14009 H 9.265988144049516 59.58693549708559 7.311790333094422 H 0.0 **** 0.06
14010 H 10.440158665410934 58.98240990738796 8.504521929948538 H 0.0 **** 0.06
14011 C 111.47311087290745 79.65714067483786 40.817928891408116 C 0.0 **** -0.24
14012 H 111.64770028595268 78.7075956228885 41.3240011169508 H 0.0 **** 0.06
14013 H 110.49714194889344 79.63522593636796 40.33295077929952 H 0.0 **** 0.06
14014 H 112.24791047321685 79.81619792979433 40.06874820415169 H 0.0 **** 0.06
14015 H 111.49948993114577 80.46647059362313 41.54673583472473 H 0.0 **** 0.06
14016 C 12.558130940106665 5.9177751489395405 68.20051236956948 C 0.0 **** -0.24
14017 H 13.316067391882484 5.9742566149441245 68.98123800624182 H 0.0 **** 0.06
14018 H 11.702940214794133 6.534324337719681 68.47854708199571 H 0.0 **** 0.06
14019 H 12.237064913888368 4.883091424169834 68.07977893220067 H 0.0 **** 0.06
14020 H 12.976789031311974 6.280217136486954 67.26136137801814 H 0.0 **** 0.06
14021 C 147.97048354444433 129.45088896380423 136.46316617330024 C 0.0 **** -0.24
14022 H 147.09707172448717 129.21358496951933 135.8548619753048 H 0.0 **** 0.06
14023 H 148.14064928917747 130.52738735768457 136.4482601789141 H 0.0 **** 0.06
14024 H 148.8436142453513 128.93794852814932 136.05971821492022 H 0.0 **** 0.06
14025 H 147.79884884064955 129.12299578877088 137.4883241869626 H 0.0 **** 0.06
14026 C 69.04544523747433 128.39989339840497 29.33318552183715 C 0.0 **** -0.24
14027 H 68.71395227750168 127.69800559812444 30.098235382915917 H 0.0 **** 0.06
14028 H 69.22107985069006 129.37522015851346 29.78782887039148 H 0.0 **** 0.06
14029 H 68.27657015883472 128.4899758387807 28.56577843758508 H 0.0 **** 0.06
14030 H 69.96915159540382 128.03725396309687 28.88197983362997 H 0.0 **** 0.06
14031 C 180.15935664742875 40.27149377818249 61.59437315339423 C 0.0 **** -0.24
14032 H 180.87654541177395 39.45161714988815 61.651853562031135 H 0.0 **** 0.06
14033 H 179.1685913903614 39.87094970450367 61.38100023868191 H 0.0 **** 0.06
14034 H 180.4549268513995 40.95685463862691 60.800466930604415 H 0.0 **** 0.06
14035 H 180.139805246687 40.80356222125238 62.545214499201904 H 0.0 **** 0.06
14036 C 90.24613927341976 145.8883468080524 185.16508839050485 C 0.0 **** -0.24
14037 H 91.25081270520916 146.29566467135612 185.27183941662392 H 0.0 **** 0.06
14038 H 89.53769713641852 146.7037019219748 185.0110617785465 H 0.0 **** 0.06
14039 H 89.97832810968536 145.33920082204713 186.06761773820602 H 0.0 **** 0.06
14040 H 90.21689752749113 145.21483886939703 184.30752709006538 H 0.0 **** 0.06
14041 C 14.386673984954953 38.27215803414366 34.88189318379432 C 0.0 **** -0.24
14042 H 13.873196472132236 38.38925237386961 35.8358733232605 H 0.0 **** 0.06
14043 H 13.790254624954713 38.72566880869712 34.08946759242201 H 0.0 **** 0.06
14044 H 14.524906812067307 37.21174891743307 34.67150889876811 H 0.0 **** 0.06
14045 H 15.359562543691126 38.76266857343758 34.93068519882121 H 0.0 **** 0.06
14046 C 166.88884033409187 146.3485962968457 28.840591514389132 C 0.0 **** -0.24
14047 H 166.24900136721078 145.47597875429983 28.970468666979173 H 0.0 **** 0.06
14048 H 166.50650684675264 147.17239772443622 29.44314497305254 H 0.0 **** 0.06
14049 H 166.8971513539965 146.6393793084979 27.789739217260177 H 0.0 **** 0.06
14050 H 167.9029590026579 146.10527381321918 29.158702935786437 H 0.0 **** 0.06
14051 C 8.999220760323482 13.355778916006564 89.01439629196402 C 0.0 **** -0.24
14052 H 9.54982839620476 12.565106252821437 89.524407412097 H 0.0 **** 0.06
14053 H 8.481120235040976 13.970242313441119 89.75091306077952 H 0.0 **** 0.06
14054 H 8.272544569786788 12.912033090420323 88.33400911211994 H 0.0 **** 0.06
14055 H 9.695647741277384 13.976356368858916 88.44897300702733 H 0.0 **** 0.06
14056 C 110.03308011617663 80.33358892586364 108.80991964254646 C 0.0 **** -0.24
14057 H 109.19214364158573 80.79502849567575 108.29339113153638 H 0.0 **** 0.06
14058 H 110.946369936842 80.88115344826588 108.57842418687208 H 0.0 **** 0.06
14059 H 110.13675429130787 79.29888425057004 108.48263800116543 H 0.0 **** 0.06
14060 H 109.85626663010727 80.35869276588863 109.8853870581362 H 0.0 **** 0.06
14061 C 127.45020022058094 181.2569326944256 173.92158458102864 C 0.0 **** -0.24
14062 H 128.30782153561745 180.79131233321218 174.40713346812078 H 0.0 **** 0.06
14063 H 126.88424190197208 181.82936393044548 174.65650500165825 H 0.0 **** 0.06
14064 H 126.81123063197049 180.48439890676107 173.49276201089884 H 0.0 **** 0.06
14065 H 127.79719168008216 181.92172163185415 173.1309519591698 H 0.0 **** 0.06
14066 C 108.0313020371113 81.73607479380664 174.95483445800167 C 0.0 **** -0.24
14067 H 108.70510706896683 80.95759434888379 175.31556897306567 H 0.0 **** 0.06
14068 H 108.31545601464767 82.02063835343854 173.94225881426402 H 0.0 **** 0.06
14069 H 108.0964776659094 82.60447828773718 175.60993586864967 H 0.0 **** 0.06
14070 H 107.00894154262754 81.3582435807763 174.95385775723844 H 0.0 **** 0.06
14071 C 59.873416621501974 10.810610520702369 58.80763091360227 C 0.0 **** -0.24
14072 H 60.55778381024213 9.983896023266126 58.99900505569964 H 0.0 **** 0.06
14073 H 60.096941131781335 11.632569068931396 59.48880661636301 H 0.0 **** 0.06
14074 H 58.84758455807916 10.47701568859852 58.96316040135822 H 0.0 **** 0.06
14075 H 59.99310052194272 11.14884003707185 57.777835327746374 H 0.0 **** 0.06
14076 C 185.02331383664688 175.1465783039849 11.63016024366641 C 0.0 **** -0.24
14077 H 184.24043077046275 175.88328395105273 11.451912549538633 H 0.0 **** 0.06
14078 H 185.6527646977242 175.47918337838166 12.456344166065435 H 0.0 **** 0.06
14079 H 185.63133042664643 175.03700054087977 10.732405882899627 H 0.0 **** 0.06
14080 H 184.5697046997132 174.18790234907073 11.881690614086494 H 0.0 **** 0.06
14081 C 115.51556712692373 25.85188626487792 140.96682459683467 C 0.0 **** -0.24
14082 H 115.2845588339125 25.577619583092883 141.99556571549448 H 0.0 **** 0.06
14083 H 116.07027977089301 26.790920727105288 140.95779348639786 H 0.0 **** 0.06
14084 H 114.58989508301933 25.97203896245651 140.40513435526555 H 0.0 **** 0.06
14085 H 116.11948979900363 25.068379407174234 140.5092289557242 H 0.0 **** 0.06
14086 C 92.88292995591245 156.4612213186404 25.166114474977093 C 0.0 **** -0.24
14087 H 91.95076542875661 156.1376890367923 25.630514678504085 H 0.0 **** 0.06
14088 H 92.66745278131692 157.20940076929062 24.402751860996517 H 0.0 **** 0.06
14089 H 93.3755826672738 155.6043844116115 24.707971319319952 H 0.0 **** 0.06
14090 H 93.53483499965394 156.8931543297837 25.925070361483904 H 0.0 **** 0.06
14091 C 45.50946692320389 115.06490311903299 138.52157060702683 C 0.0 **** -0.24
14092 H 45.50271491719002 115.87361092653511 137.79129296299902 H 0.0 **** 0.06
14093 H 46.449475648732744 114.51902216071794 138.44958515061683 H 0.0 **** 0.06
14094 H 44.678818683125144 114.38757683211848 138.3206651803917 H 0.0 **** 0.06
14095 H 45.405549087345435 115.47989130224106 139.52452288645418 H 0.0 **** 0.06
14096 C 164.00060549259058 54.91039503931154 50.90305720570599 C 0.0 **** -0.24
14097 H 164.90231712012815 55.01938050543248 51.50620369546557 H 0.0 **** 0.06
14098 H 164.22455445734533 54.313827487021 50.01905473668265 H 0.0 **** 0.06
14099 H 163.64774128870204 55.89577724443018 50.597215498910614 H 0.0 **** 0.06
14100 H 163.2288760971001 54.41446716790304 51.491842099877644 H 0.0 **** 0.06
14101 C 130.3371203259171 2.651013087014576 171.840553867497 C 0.0 **** -0.24
14102 H 129.82872551189234 3.611796202371522 171.76012451983027 H 0.0 **** 0.06
14103 H 129.9670567990081 1.9775754804153962 171.06710111914643 H 0.0 **** 0.06
14104 H 130.14435902634472 2.219540709036835 172.8227605822459 H 0.0 **** 0.06
14105 H 131.4100719126294 2.7968708248378107 171.7122971052884 H 0.0 **** 0.06
14106 C 16.28629236190929 112.50566652799127 144.68532154999588 C 0.0 **** -0.24
14107 H 17.059581695606028 111.80104982129008 144.3805523790657 H 0.0 **** 0.06
14108 H 16.69416897239185 113.5174551590812 144.6797673195087 H 0.0 **** 0.06
14109 H 15.943787848906112 112.25767204489655 145.6901796341199 H 0.0 **** 0.06
14110 H 15.44745609982408 112.44807839752333 143.99145289986777 H 0.0 **** 0.06
14111 C 25.634462698555765 53.67738054375337 153.235168385324 C 0.0 **** -0.24
14112 H 24.951647131302025 54.34472301144581 153.76173491841382 H 0.0 **** 0.06
14113 H 26.58834268686536 54.18203916744045 153.0827872943542 H 0.0 **** 0.06
14114 H 25.206686314136633 53.409280793455196 152.26918637239115 H 0.0 **** 0.06
14115 H 25.78963870234483 52.776134063333814 153.82619502743628 H 0.0 **** 0.06
14116 C 63.917389806317004 158.22099862646465 116.32365808130182 C 0.0 **** -0.24
14117 H 63.450825987746796 157.3908735612471 116.85331544540578 H 0.0 **** 0.06
14118 H 64.14857360563168 157.91591889111487 115.30290552658182 H 0.0 **** 0.06
14119 H 64.83592287602933 158.50731481781338 116.83493723845147 H 0.0 **** 0.06
14120 H 63.232917017369374 159.06943459994562 116.30324289920905 H 0.0 **** 0.06
14121 C 83.80553148583044 179.21413566769638 115.33625589952078 C 0.0 **** -0.24
14122 H 84.08867202039005 179.2173888421314 116.3886085998958 H 0.0 **** 0.06
14123 H 84.63814727124384 178.8430243270039 114.73703495715614 H 0.0 **** 0.06
14124 H 83.55729580114985 180.22849028897093 115.02338353199195 H 0.0 **** 0.06
14125 H 82.93983318007099 178.56805568251696 115.19476940206641 H 0.0 **** 0.06
14126 C 176.36188649381955 166.6701319855518 91.60726301848875 C 0.0 **** -0.24
14127 H 177.3998239999835 166.79225630377755 91.29665593175504 H 0.0 **** 0.06
14128 H 175.869252580783 167.64323309062834 91.61571697489818 H 0.0 **** 0.06
14129 H 176.3307998070975 166.2382248430066 92.60740560520809 H 0.0 **** 0.06
14130 H 175.8497956798501 166.0088595573124 90.9098161861482 H 0.0 **** 0.06
14131 C 149.6454780364399 66.44538748633641 175.31127443480216 C 0.0 **** -0.24
14132 H 149.229360142762 65.76881473918172 174.56507166729733 H 0.0 **** 0.06
14133 H 149.5239738060448 67.47494140988306 174.9744795335042 H 0.0 **** 0.06
14134 H 150.70474327632928 66.22935898907974 175.44534593874266 H 0.0 **** 0.06
14135 H 149.1232511483359 66.30779542581797 176.25715911178605 H 0.0 **** 0.06
14136 C 90.69218985372089 51.708115924943286 102.63839742345912 C 0.0 **** -0.24
14137 H 90.03082488201886 52.52641368258131 102.35319657579525 H 0.0 **** 0.06
14138 H 90.10051774576493 50.810874701372114 102.8250782010309 H 0.0 **** 0.06
14139 H 91.23739089419735 51.979473650160486 103.54235105689897 H 0.0 **** 0.06
14140 H 91.40009628349196 51.515039052314535 101.83171644752905 H 0.0 **** 0.06
14141 C 21.46013846702124 95.2278657724511 55.517563947602795 C 0.0 **** -0.24
14142 H 21.78576005067191 96.26437686137182 55.60598743165568 H 0.0 **** 0.06
14143 H 21.838926529561263 94.65476124267393 56.36405681477538 H 0.0 **** 0.06
14144 H 21.8462295270283 94.80454771636259 54.590429181993514 H 0.0 **** 0.06
14145 H 20.371002225829102 95.18860788424551 55.50911274391257 H 0.0 **** 0.06
14146 C 92.87455637125264 116.25872235882149 92.78892387572323 C 0.0 **** -0.24
14147 H 92.19180008056226 116.88216400957721 93.36547109633993 H 0.0 **** 0.06
14148 H 93.56134623674525 116.89330660600494 92.22882935098328 H 0.0 **** 0.06
14149 H 92.30395105236873 115.63934261613134 92.09613408491039 H 0.0 **** 0.06
14150 H 93.44073031034232 115.61833904914546 93.46616879473068 H 0.0 **** 0.06
14151 C 125.53321382968356 156.82817876026616 128.8446825296358 C 0.0 **** -0.24
14152 H 125.79248677976581 156.44558434824793 129.83264581603908 H 0.0 **** 0.06
14153 H 125.7582508547461 156.07102381927774 128.09278817217267 H 0.0 **** 0.06
14154 H 126.11275957109295 157.72785290776363 128.64019414254716 H 0.0 **** 0.06
14155 H 124.46962072309425 157.06529120133808 128.81513997311072 H 0.0 **** 0.06
14156 C 83.33098755213152 88.94937225305063 157.52890754530847 C 0.0 **** -0.24
14157 H 84.11588328561929 88.68348914689489 156.82139344255984 H 0.0 **** 0.06
14158 H 82.5431510519961 89.49532283739967 157.00871046472116 H 0.0 **** 0.06
14159 H 83.74884268379941 89.57674783679892 158.3169864487038 H 0.0 **** 0.06
14160 H 82.91607318711118 88.0419291911088 157.96853982524897 H 0.0 **** 0.06
14161 C 183.0883531986173 134.87959381345308 161.90525389884365 C 0.0 **** -0.24
14162 H 182.86822118674235 135.64328408531026 162.65126223116508 H 0.0 **** 0.06
14163 H 183.72649811141122 135.30322164020015 161.1303643104448 H 0.0 **** 0.06
14164 H 182.1576214187897 134.52854834458958 161.45981165638355 H 0.0 **** 0.06
14165 H 183.6009670448899 134.0447155866588 162.38223160743408 H 0.0 **** 0.06
14166 C 65.9616940601732 150.30426807669403 55.16489475983798 C 0.0 **** -0.24
14167 H 65.46373145707483 150.50220947704338 54.215413941185574 H 0.0 **** 0.06
14168 H 66.34852809355522 151.23850626307117 55.571981736318605 H 0.0 **** 0.06
14169 H 66.78519583756804 149.60854812135793 55.00551810925015 H 0.0 **** 0.06
14170 H 65.24870713486665 149.8689973867387 55.864873635307816 H 0.0 **** 0.06
14171 C 27.496625523423802 90.14182816141276 48.94898798854936 C 0.0 **** -0.24
14172 H 27.45914159197207 90.404941273348 47.8913586414251 H 0.0 **** 0.06
14173 H 26.481957189974665 90.02236878417737 49.32904192879299 H 0.0 **** 0.06
14174 H 28.002451002680445 90.93282004320766 49.50186389540498 H 0.0 **** 0.06
14175 H 28.04267312853736 89.20641414421426 49.07097975588664 H 0.0 **** 0.06
14176 C 131.91453281303836 115.47639697631435 152.775284420126 C 0.0 **** -0.24
14177 H 132.8065084142832 114.91287701585408 152.50046964813208 H 0.0 **** 0.06
14178 H 131.70640397820551 116.22408698238827 152.00940751977072 H 0.0 **** 0.06
14179 H 132.07943682001115 115.97285461541351 153.73221747733447 H 0.0 **** 0.06
14180 H 131.06761442047667 114.79603682874178 152.85979861667101 H 0.0 **** 0.06
14181 C 180.7820555153924 107.3969673499226 112.94684046431313 C 0.0 **** -0.24
14182 H 179.96050186110875 107.72359578036331 113.58502996991258 H 0.0 **** 0.06
14183 H 181.07301071132315 106.38247108630766 113.22116471267505 H 0.0 **** 0.06
14184 H 181.63100145032584 108.06672916017412 113.07872391758796 H 0.0 **** 0.06
14185 H 180.4623023490662 107.41581611938399 111.90535403631701 H 0.0 **** 0.06
14186 C 50.58846210111969 132.24341633468208 81.66897413648367 C 0.0 **** -0.24
14187 H 50.39323230571483 132.17782508181284 80.59891738034781 H 0.0 **** 0.06
14188 H 51.44143375717843 131.6128268063381 81.92146489872059 H 0.0 **** 0.06
14189 H 49.710286941401364 131.90593695236748 82.21988831369897 H 0.0 **** 0.06
14190 H 50.808895400184326 133.27707649821002 81.93562595316752 H 0.0 **** 0.06
14191 C 22.61731982507456 102.99454285349411 124.27343868010122 C 0.0 **** -0.24
14192 H 22.442115926955978 104.01160857798591 123.92218481298407 H 0.0 **** 0.06
14193 H 22.152953479740972 102.86368034974812 125.25095045512548 H 0.0 **** 0.06
14194 H 23.689676975342877 102.81775677131633 124.35356467343699 H 0.0 **** 0.06
14195 H 22.183841670521105 102.28698022980997 123.5673429627759 H 0.0 **** 0.06
14196 C 4.145719142953567 144.87530063256187 47.44896183698694 C 0.0 **** -0.24
14197 H 3.2062149850925152 144.6195386050293 47.93814387676831 H 0.0 **** 0.06
14198 H 4.324945471146492 144.1831011592159 46.625202637589865 H 0.0 **** 0.06
14199 H 4.961793403228 144.8038771029233 48.16814182086132 H 0.0 **** 0.06
14200 H 4.0896577286718525 145.8930086803624 47.06290380271062 H 0.0 **** 0.06
14201 C 160.2110898768177 95.75662064520141 31.08481525166134 C 0.0 **** -0.24
14202 H 159.43151500336378 96.49815764375286 31.26104599174849 H 0.0 **** 0.06
14203 H 160.86157119765767 95.69855070820044 31.95834678102719 H 0.0 **** 0.06
14204 H 160.7968075624679 96.0457435918227 30.212899517299164 H 0.0 **** 0.06
14205 H 159.75293543987084 94.78357086057456 30.908171577498365 H 0.0 **** 0.06
14206 C 85.27186767191417 170.5933997322334 52.70789815184064 C 0.0 **** -0.24
14207 H 85.69075759791467 169.81799644120954 52.067945588113645 H 0.0 **** 0.06
14208 H 84.87777531341536 171.4009514668881 52.09024955213255 H 0.0 **** 0.06
14209 H 86.0494656087363 170.983773636232 53.364105448343665 H 0.0 **** 0.06
14210 H 84.46716858099505 170.1711133142072 53.31009075171286 H 0.0 **** 0.06
14211 C 175.81708726492153 114.03174003954597 166.76963115440526 C 0.0 **** -0.24
14212 H 176.05832505821425 114.93870639877078 167.32489572041587 H 0.0 **** 0.06
14213 H 176.73584555951385 113.58408589279848 166.39033136387826 H 0.0 **** 0.06
14214 H 175.16147166837686 114.28050599674596 165.93547946731525 H 0.0 **** 0.06
14215 H 175.31324826168964 113.32529707869874 167.42883442302104 H 0.0 **** 0.06
14216 C 33.83261429785938 108.60374947757532 9.70034589440521 C 0.0 **** -0.24
14217 H 33.53524761814913 108.90930739373994 10.702634644324128 H 0.0 **** 0.06
14218 H 34.745024822549226 109.12781985537032 9.415292137899243 H 0.0 **** 0.06
14219 H 33.037910168769685 108.84895905065963 8.994989244837612 H 0.0 **** 0.06
14220 H 34.01123254355258 107.52844784131923 9.685879255411578 H 0.0 **** 0.06
14221 C 64.9174296950652 57.87922096478225 29.846613730576024 C 0.0 **** -0.24
14222 H 65.92618261195584 57.67004789969829 29.491784865615628 H 0.0 **** 0.06
14223 H 64.2511836902811 58.002050976992265 28.99227630821413 H 0.0 **** 0.06
14224 H 64.92311493620389 58.79449092893461 30.43827066389325 H 0.0 **** 0.06
14225 H 64.5696707090073 57.049676731436534 30.462017994742666 H 0.0 **** 0.06
14226 C 76.70877576236872 123.7055694899103 40.38531517213019 C 0.0 **** -0.24
14227 H 77.50559287400527 123.08526476279447 40.795105225098936 H 0.0 **** 0.06
14228 H 76.1137695953921 123.11738476370174 39.68638544599031 H 0.0 **** 0.06
14229 H 77.14387425551836 124.55839711211287 39.864034328775645 H 0.0 **** 0.06
14230 H 76.072860054119 124.0613303193095 41.19568348120299 H 0.0 **** 0.06
14231 C 179.99839094720085 53.46112278020257 157.7853887663982 C 0.0 **** -0.24
14232 H 180.35645346651165 54.30338429083463 157.19322481327424 H 0.0 **** 0.06
14233 H 180.7579206175066 53.18451148892308 158.51858744874625 H 0.0 **** 0.06
14234 H 179.7998578289733 52.613423149888405 157.12965612399168 H 0.0 **** 0.06
14235 H 179.0807807850183 53.74410657213187 158.30232895343516 H 0.0 **** 0.06
14236 C 174.62364633258505 149.92455893231215 58.20507741673475 C 0.0 **** -0.24
14237 H 173.8752512884106 150.5180187923541 57.67853525218811 H 0.0 **** 0.06
14238 H 174.7743662248431 150.33364932547263 59.20407337598192 H 0.0 **** 0.06
14239 H 175.5636181175405 149.9546627775951 57.6538014680993 H 0.0 **** 0.06
14240 H 174.2802026540328 148.89295249919792 58.28229121516257 H 0.0 **** 0.06
14241 C 26.426125668069517 111.55319022053335 103.545772807506 C 0.0 **** -0.24
14242 H 25.430358149673395 111.98898173967213 103.46343103215621 H 0.0 **** 0.06
14243 H 27.17468747674826 112.30925988248894 103.30868790628573 H 0.0 **** 0.06
14244 H 26.51651744396969 110.72062839266438 102.84808556186387 H 0.0 **** 0.06
14245 H 26.581706971606536 111.19331819318181 104.56249594030255 H 0.0 **** 0.06
14246 C 181.62083626547158 81.71696513051245 142.51445265748913 C 0.0 **** -0.24
14247 H 181.16812906380954 82.69120809508297 142.32839563987216 H 0.0 **** 0.06
14248 H 182.24452142406045 81.77059882117533 143.407492211469 H 0.0 **** 0.06
14249 H 182.23425911565022 81.43196031313511 141.66028932435972 H 0.0 **** 0.06
14250 H 180.83621313622598 80.97430911092823 142.66258425394773 H 0.0 **** 0.06
14251 C 132.19800615811118 65.80065824312673 62.606064799290465 C 0.0 **** -0.24
14252 H 131.21526679864206 66.2659234583525 62.67625718613128 H 0.0 **** 0.06
14253 H 132.9434271836859 66.56101707885516 62.37295259517961 H 0.0 **** 0.06
14254 H 132.18813660627262 65.0468653252893 61.8187947109334 H 0.0 **** 0.06
14255 H 132.4452858199105 65.32885538069827 63.557665671732025 H 0.0 **** 0.06
14256 C 161.32232880545234 16.73966358663742 95.32175362211592 C 0.0 **** -0.24
14257 H 160.6414887484307 17.583718100167147 95.20691380193693 H 0.0 **** 0.06
14258 H 160.82498614063226 15.946836089969423 95.88165471153525 H 0.0 **** 0.06
14259 H 162.21266261357266 17.06234247652077 95.8596805315508 H 0.0 **** 0.06
14260 H 161.60668433984452 16.366828838548997 94.33795967299892 H 0.0 **** 0.06
14261 C 135.30185241353462 109.74556630918141 155.9591796667248 C 0.0 **** -0.24
14262 H 135.59604691885426 109.02280985609912 156.7207675385969 H 0.0 **** 0.06
14263 H 135.4614967756993 109.31542800519009 154.96953875983596 H 0.0 **** 0.06
14264 H 135.90304340811304 110.64859568806827 156.06465331288354 H 0.0 **** 0.06
14265 H 134.24828197805 109.99381587914354 156.08226833096904 H 0.0 **** 0.06
14266 C 135.71566080059972 120.70038983137727 173.58137748269604 C 0.0 **** -0.24
14267 H 135.83618999700684 121.78292048605869 173.61878670923466 H 0.0 **** 0.06
14268 H 135.549869535435 120.31900144274539 174.58911133930792 H 0.0 **** 0.06
14269 H 136.61517357089178 120.24887074388135 173.16428561671842 H 0.0 **** 0.06
14270 H 134.85933422353935 120.45259596667358 172.9539132487924 H 0.0 **** 0.06
14271 C 34.30703142730704 22.684724457303957 166.51822282448728 C 0.0 **** -0.24
14272 H 35.37559318659939 22.49458942562427 166.6107039611315 H 0.0 **** 0.06
14273 H 34.131764305305154 23.390128013334902 165.70546108702132 H 0.0 **** 0.06
14274 H 33.930177686830916 23.103449882818836 167.4512247714954 H 0.0 **** 0.06
14275 H 33.78980364892732 21.748438405745105 166.30514477741536 H 0.0 **** 0.06
14276 C 55.518224764420154 40.78512030375941 108.55548911900196 C 0.0 **** -0.24
14277 H 55.28688313253443 40.968887732545 107.5065382469514 H 0.0 **** 0.06
14278 H 55.27155724514654 41.670161113305966 109.14242120764312 H 0.0 **** 0.06
14279 H 56.58053932174417 40.56403748458786 108.65989475218804 H 0.0 **** 0.06
14280 H 54.93391935825565 39.93739488459897 108.9131022692252 H 0.0 **** 0.06
14281 C 107.22759512841291 107.20232343126112 167.4355729810781 C 0.0 **** -0.24
14282 H 107.01503856704464 106.13882138824981 167.5538164915248 H 0.0 **** 0.06
14283 H 107.92653477666057 107.52069474268909 168.2094841239226 H 0.0 **** 0.06
14284 H 106.30185000585921 107.76973037494788 167.525865101237 H 0.0 **** 0.06
14285 H 107.66755678480466 107.37718251833626 166.4537851208494 H 0.0 **** 0.06
14286 C 68.74643834072347 1.1302612110650898 146.61093628840047 C 0.0 **** -0.24
14287 H 68.82291536596931 1.4741043294525866 147.64278247587598 H 0.0 **** 0.06
14288 H 68.86906397274822 0.04701976948183528 146.57916632852613 H 0.0 **** 0.06
14289 H 69.52611742380168 1.6025691276621785 146.01212984373404 H 0.0 **** 0.06
14290 H 67.76886754686223 1.3971130261119526 146.21035696336125 H 0.0 **** 0.06
14291 C 10.810478352281905 177.0742127349881 150.2123971724472 C 0.0 **** -0.24
14292 H 10.469448450306402 177.17526993410706 151.2421094526668 H 0.0 **** 0.06
14293 H 11.591122750799514 176.31520570949422 150.16109393462295 H 0.0 **** 0.06
14294 H 11.208156915296655 178.02857589174386 149.86623954132807 H 0.0 **** 0.06
14295 H 9.972782040642556 176.7791246309262 149.57986078329196 H 0.0 **** 0.06
14296 C 77.84183323119302 115.67157740098334 118.75638178477413 C 0.0 **** -0.24
14297 H 77.48170244839476 116.7005563904478 118.72627441386652 H 0.0 **** 0.06
14298 H 77.42039206893253 115.16509700431094 119.62434278773952 H 0.0 **** 0.06
14299 H 78.9299788044285 115.6695225399615 118.82691812581521 H 0.0 **** 0.06
14300 H 77.53639243950035 115.15326962049222 117.84838492988172 H 0.0 **** 0.06
14301 C 151.45912608105675 176.66967398117933 127.42040140194996 C 0.0 **** -0.24
14302 H 151.60513055171668 176.77161494978822 126.34433767973661 H 0.0 **** 0.06
14303 H 150.40202032948923 176.50074667239025 127.62900243909644 H 0.0 **** 0.06
14304 H 151.78645073665257 177.58242522859527 127.91798565319084 H 0.0 **** 0.06
14305 H 152.04261471899702 175.82609872434426 127.78824938832952 H 0.0 **** 0.06
14306 C 150.76922781788122 119.27636896213001 26.85800575968817 C 0.0 **** -0.24
14307 H 150.05050778461765 119.87036769639609 26.294233324033698 H 0.0 **** 0.06
14308 H 150.32369128271256 118.9694465138948 27.804842174830924 H 0.0 **** 0.06
14309 H 151.66195408707577 119.87121861536669 27.05127257770961 H 0.0 **** 0.06
14310 H 151.0410647879361 118.39237140069967 26.28089108833649 H 0.0 **** 0.06
14311 C 7.87165285201533 15.85894674399949 19.788522808633367 C 0.0 **** -0.24
14312 H 8.610632559544172 16.239142530544633 19.084171699051794 H 0.0 **** 0.06
14313 H 7.932948716494167 16.423887389978603 20.718518098638853 H 0.0 **** 0.06
14314 H 8.068913059965638 14.805813749348019 19.98891909246621 H 0.0 **** 0.06
14315 H 6.874117072057288 15.966943306126751 19.36248234437626 H 0.0 **** 0.06
14316 C 146.03547998242138 176.22499840103438 44.51123961551423 C 0.0 **** -0.24
14317 H 145.06581815005134 175.75651067270218 44.344585700022776 H 0.0 **** 0.06
14318 H 145.9892060396711 177.27264467564504 44.21138730830219 H 0.0 **** 0.06
14319 H 146.79442396716826 175.71090434578866 43.92145177696804 H 0.0 **** 0.06
14320 H 146.29264207158414 176.16078817506644 45.568647803754516 H 0.0 **** 0.06
14321 C 184.85542518474236 42.29283535730026 115.1225630843826 C 0.0 **** -0.24
14322 H 185.52269198232443 43.111397593962224 114.85413575715519 H 0.0 **** 0.06
14323 H 184.91768195366032 41.51112804418402 114.36556696042759 H 0.0 **** 0.06
14324 H 183.83101559622676 42.66387855474214 115.17819900130117 H 0.0 **** 0.06
14325 H 185.1487018115315 41.88768702135475 116.09066276482504 H 0.0 **** 0.06
14326 C 54.326403870957805 177.0438248702245 124.60643107155948 C 0.0 **** -0.24
14327 H 53.279655429946516 177.1591474011404 124.327415396515 H 0.0 **** 0.06
14328 H 54.81741797564045 178.01681959485694 124.58505860744907 H 0.0 **** 0.06
14329 H 54.818941056588244 176.37221233825164 123.90305201428413 H 0.0 **** 0.06
14330 H 54.39041619627058 176.62683012229422 125.61226018452476 H 0.0 **** 0.06
14331 C 107.56376302791472 116.66727963894597 32.3425622837122 C 0.0 **** -0.24
14332 H 108.03620005965416 116.71976303914816 31.36175083240272 H 0.0 **** 0.06
14333 H 108.31711188690514 116.81024083435561 33.11725122568561 H 0.0 **** 0.06
14334 H 107.09412965396967 115.69130190330371 32.46702243236109 H 0.0 **** 0.06
14335 H 106.80627934390208 117.44716087494685 32.422550386795734 H 0.0 **** 0.06
14336 C 8.093325479180976 14.51539644762714 109.62257487244956 C 0.0 **** -0.24
14337 H 7.142138775626336 14.960795712631807 109.33244611931643 H 0.0 **** 0.06
14338 H 8.328517723560878 13.689419772799205 108.9505134677696 H 0.0 **** 0.06
14339 H 8.023721070237173 14.144776317269582 110.64556769924944 H 0.0 **** 0.06
14340 H 8.879970303542962 15.268757495749 109.56224692150057 H 0.0 **** 0.06
14341 C 7.062116909741491 5.280879999327851 63.8044439339001 C 0.0 **** -0.24
14342 H 6.194638105523609 5.102375527583064 63.1689173448773 H 0.0 **** 0.06
14343 H 7.526241661528786 4.327909339090638 64.06001294212213 H 0.0 **** 0.06
14344 H 6.745102178144805 5.787397288907016 64.71583257124486 H 0.0 **** 0.06
14345 H 7.780417423134907 5.903908894235428 63.272972679520265 H 0.0 **** 0.06
14346 C 61.2905859082376 112.11480015785429 116.63709343031017 C 0.0 **** -0.24
14347 H 60.87147084322174 112.66465575330056 115.7944572407345 H 0.0 **** 0.06
14348 H 61.49060371365036 112.80416059085957 117.45666063610734 H 0.0 **** 0.06
14349 H 62.21964301246547 111.63474330031647 116.33021126100566 H 0.0 **** 0.06
14350 H 60.58083548901078 111.35601968363204 116.96485076175215 H 0.0 **** 0.06
14351 C 170.8919849656028 26.645052862625178 165.9059755450085 C 0.0 **** -0.24
14352 H 170.89716427419555 25.570792677318693 166.08904268906508 H 0.0 **** 0.06
14353 H 170.47963998893664 26.84129935740333 164.91556687680566 H 0.0 **** 0.06
14354 H 171.91144041701733 27.026998275077617 165.95801055443823 H 0.0 **** 0.06
14355 H 170.28001372230366 27.139510562202517 166.65946417154586 H 0.0 **** 0.06
14356 C 144.13498298068305 60.590664459731954 113.16163512476264 C 0.0 **** -0.24
14357 H 144.6560665386392 60.43556724777278 114.10621605651578 H 0.0 **** 0.06
14358 H 144.70506003733658 61.284133939275364 112.54202344333378 H 0.0 **** 0.06
14359 H 143.14623007824923 61.00493871208826 113.35640391706006 H 0.0 **** 0.06
14360 H 144.03463413603217 59.63755017822385 112.64263355156008 H 0.0 **** 0.06
14361 C 113.40453941260245 64.75276144909915 166.39136105676369 C 0.0 **** -0.24
14362 H 113.64891054078038 64.56224892065546 167.436317557099 H 0.0 **** 0.06
14363 H 112.50352607625445 64.2010154322596 166.12265736781382 H 0.0 **** 0.06
14364 H 114.23204409339701 64.4281542193802 165.7604795195717 H 0.0 **** 0.06
14365 H 113.2336049761966 65.81967645386905 166.24698598654484 H 0.0 **** 0.06
14366 C 77.54660380481754 143.06407693186821 113.80787794461116 C 0.0 **** -0.24
14367 H 76.8594380281152 142.99018102557022 112.96458204697763 H 0.0 **** 0.06
14368 H 77.64641242716034 144.10910463490484 114.10475292394494 H 0.0 **** 0.06
14369 H 78.52150121198673 142.67285252797308 113.51823530871548 H 0.0 **** 0.06
14370 H 77.15648646135992 142.48497940961317 114.64477989676823 H 0.0 **** 0.06
14371 C 1.9583970400219357 61.64932332901981 177.42816277440932 C 0.0 **** -0.24
14372 H 2.725619894625055 62.11553609633535 176.8099329527043 H 0.0 **** 0.06
14373 H 1.9108027230052187 60.58325709380591 177.20736895254714 H 0.0 **** 0.06
14374 H 0.9927461146524195 62.10840684101521 177.21559280814014 H 0.0 **** 0.06
14375 H 2.204476483838789 61.792177548449104 178.4805642912555 H 0.0 **** 0.06
14376 C 16.084855857819264 40.955103843905334 75.29099385253107 C 0.0 **** -0.24
14377 H 15.794024437241148 41.51814133367367 74.40390860108522 H 0.0 **** 0.06
14378 H 16.762080640895647 41.55726833493668 75.89687328580936 H 0.0 **** 0.06
14379 H 16.586560450277574 40.03526357915314 74.98939350582208 H 0.0 **** 0.06
14380 H 15.196722939660361 40.71020020338656 75.87291177808203 H 0.0 **** 0.06
14381 C 35.09503854989339 148.61623840074571 53.45053919284089 C 0.0 **** -0.24
14382 H 34.33546321207939 148.71686807044978 54.226369948248276 H 0.0 **** 0.06
14383 H 35.865909786745874 147.92114550217934 53.785086337261134 H 0.0 **** 0.06
14384 H 35.54428727677754 149.58886512534863 53.252986242047996 H 0.0 **** 0.06
14385 H 34.63441810072021 148.2362569191805 52.53901397529819 H 0.0 **** 0.06
14386 C 55.549197554796365 87.52003055719813 2.088767936618133 C 0.0 **** -0.24
14387 H 54.98093431849239 87.1739669714746 1.2250710767196509 H 0.0 **** 0.06
14388 H 55.59530275827342 86.72507450862203 2.834170910798619 H 0.0 **** 0.06
14389 H 55.061706262219275 88.39435624036663 2.519088958711663 H 0.0 **** 0.06
14390 H 56.559602754674586 87.7846200827929 1.7767277420853063 H 0.0 **** 0.06
14391 C 87.02440681101042 91.68381497005326 57.6220857228448 C 0.0 **** -0.24
14392 H 87.91270074195047 91.85283320707502 58.23109894242003 H 0.0 **** 0.06
14393 H 87.09514896630536 92.2707653798593 56.70595464890073 H 0.0 **** 0.06
14394 H 86.13817721397412 91.98533349318974 58.1799692511283 H 0.0 **** 0.06
14395 H 86.952738377671 90.62553999168541 57.37102981417931 H 0.0 **** 0.06
14396 C 91.88638261372652 96.75796943507669 73.44673551344478 C 0.0 **** -0.24
14397 H 91.2465837328693 97.21896723359214 74.19907903844535 H 0.0 **** 0.06
14398 H 91.74258816566505 97.26199728010727 72.49010732299153 H 0.0 **** 0.06
14399 H 91.62609753029169 95.70448417288185 73.34594448252854 H 0.0 **** 0.06
14400 H 92.92806078250187 96.84748269486744 73.75159003831759 H 0.0 **** 0.06
14401 C 148.89748552672737 110.26036514142214 64.23715469589257 C 0.0 **** -0.24
14402 H 148.52316695525738 109.25588448155878 64.43567065036245 H 0.0 **** 0.06
14403 H 149.9875978836597 110.25189767644224 64.25500771175132 H 0.0 **** 0.06
14404 H 148.52684167669935 110.94378860011687 65.00204024953825 H 0.0 **** 0.06
14405 H 148.55204294565783 110.59008911352777 63.25683540471431 H 0.0 **** 0.06
14406 C 110.07973011614611 16.628886018153395 134.13120674195955 C 0.0 **** -0.24
14407 H 110.84996030672868 15.858488352813616 134.09352045685728 H 0.0 **** 0.06
14408 H 109.98685485080186 16.99916784152648 135.15317492653628 H 0.0 **** 0.06
14409 H 109.12752402885074 16.208057134340088 133.80876919355836 H 0.0 **** 0.06
14410 H 110.35561387791942 17.451199181273267 133.47079809303045 H 0.0 **** 0.06
14411 C 176.59994506844072 128.8160098118771 159.99392237123436 C 0.0 **** -0.24
14412 H 176.93024469047924 129.85563136350356 159.98354934567186 H 0.0 **** 0.06
14413 H 175.83967236575194 128.6837172346565 160.76339910423502 H 0.0 **** 0.06
14414 H 177.45084382647946 128.1682415450312 160.20740297117618 H 0.0 **** 0.06
14415 H 176.18219706892978 128.55815246481654 159.02137338538205 H 0.0 **** 0.06
14416 C 179.34978083113572 68.26896033931462 21.378912408363192 C 0.0 **** -0.24
14417 H 178.6498818786739 68.77640839816833 22.04321452404902 H 0.0 **** 0.06
14418 H 178.9307956329404 68.22873099252409 20.373403398272927 H 0.0 **** 0.06
14419 H 179.52458986172627 67.25536947881524 21.740516816384982 H 0.0 **** 0.06
14420 H 180.29246420215927 68.81526467588694 21.35827305682038 H 0.0 **** 0.06
14421 C 95.10190963728485 115.56951225554785 26.493507317103365 C 0.0 **** -0.24
14422 H 94.10041169091596 115.99452637841405 26.412068533211936 H 0.0 **** 0.06
14423 H 95.65950418179136 116.10089687433724 27.2649573037138 H 0.0 **** 0.06
14424 H 95.61665397366284 115.66977862578541 25.53850770447289 H 0.0 **** 0.06
14425 H 95.02779696721439 114.51465075259516 26.758288152300366 H 0.0 **** 0.06
14426 C 30.141661955980396 26.830135415113887 3.0969329177354723 C 0.0 **** -0.24
14427 H 29.055280568802743 26.853075076277577 3.173923706636856 H 0.0 **** 0.06
14428 H 30.506605866511492 25.849782500772662 3.4051446916933514 H 0.0 **** 0.06
14429 H 30.56884251218203 27.59629848290541 3.7435125923633734 H 0.0 **** 0.06
14430 H 30.436580080589195 27.019240492046492 2.0641701359776903 H 0.0 **** 0.06
14431 C 174.11514793240036 77.95970961314451 154.29287745577923 C 0.0 **** -0.24
14432 H 175.04494932589853 78.52577593739382 154.34223969874324 H 0.0 **** 0.06
14433 H 173.51511277919204 78.16846731568228 155.17920325749594 H 0.0 **** 0.06
14434 H 174.34087459356587 76.89469441659168 154.24862312608633 H 0.0 **** 0.06
14435 H 173.55978393973461 78.25118758104101 153.40087139253623 H 0.0 **** 0.06
14436 C 95.78652083227219 37.329874721347096 143.59698931445914 C 0.0 **** -0.24
14437 H 95.8638101042056 37.05188645060642 144.64825724450378 H 0.0 **** 0.06
14438 H 95.10282582024199 38.17287898011213 143.49271882564517 H 0.0 **** 0.06
14439 H 95.40983413445532 36.48280293205772 143.02418580146656 H 0.0 **** 0.06
14440 H 96.7713839068994 37.61056570437387 143.22284271887798 H 0.0 **** 0.06
14441 C 96.21290499898016 114.82713106146834 55.993559940562704 C 0.0 **** -0.24
14442 H 95.44063299765129 114.09756436545528 56.23584022699782 H 0.0 **** 0.06
14443 H 95.98122561624076 115.77565326263165 56.479067597647315 H 0.0 **** 0.06
14444 H 96.25044375315265 114.97036634445566 54.913596115957375 H 0.0 **** 0.06
14445 H 97.17879719657041 114.46409881268706 56.345881145133205 H 0.0 **** 0.06
14446 C 29.18978554126329 148.1805048653147 169.25080211732373 C 0.0 **** -0.24
14447 H 28.14480611788109 148.26619288897282 169.55048521001564 H 0.0 **** 0.06
14448 H 29.66807681330522 149.15745296908878 169.32068934189925 H 0.0 **** 0.06
14449 H 29.244586594154057 147.82163104270086 168.22268062392268 H 0.0 **** 0.06
14450 H 29.70034948060828 147.477837394744 169.90912821103095 H 0.0 **** 0.06
14451 C 23.742163985017896 119.17839893357531 47.70595933912409 C 0.0 **** -0.24
14452 H 24.309656689678064 119.08628498637536 46.780649996142216 H 0.0 **** 0.06
14453 H 23.72868185082939 120.22193703830997 48.02134613673354 H 0.0 **** 0.06
14454 H 24.210145961354044 118.57063672982865 48.480518144001735 H 0.0 **** 0.06
14455 H 22.721387298623682 118.83509146570286 47.54195242262574 H 0.0 **** 0.06
14456 C 89.50714325566072 18.55093541616005 112.05511981403696 C 0.0 **** -0.24
14457 H 89.44465263940951 18.06990193652586 111.07889592437503 H 0.0 **** 0.06
14458 H 90.50020960955219 18.391201375213008 112.4744783750459 H 0.0 **** 0.06
14459 H 88.75792080620924 18.122433285654218 112.71974299545433 H 0.0 **** 0.06
14460 H 89.3259719471104 19.620272294618523 111.94492013568892 H 0.0 **** 0.06
14461 C 114.16753390105329 2.380218347021554 159.17854411645263 C 0.0 **** -0.24
14462 H 114.76569443782354 2.844571384277657 158.39482759842392 H 0.0 **** 0.06
14463 H 113.18815180675331 2.855139447310563 159.21728658766486 H 0.0 **** 0.06
14464 H 114.66980188523821 2.5018651440141184 160.13828746441223 H 0.0 **** 0.06
14465 H 114.04901752448954 1.317708432003144 158.96350240018265 H 0.0 **** 0.06
14466 C 149.06548416861705 133.5020014962912 112.45272030942117 C 0.0 **** -0.24
14467 H 149.57761825616237 134.30418431786012 111.92172148514025 H 0.0 **** 0.06
14468 H 148.0935231339532 133.85589777991572 112.79602414496024 H 0.0 **** 0.06
14469 H 149.66346050846187 133.19334888323272 113.31063944522309 H 0.0 **** 0.06
14470 H 148.92774585744877 132.6532239065225 111.78257097256709 H 0.0 **** 0.06
14471 C 157.12907722579084 149.93818813331484 156.2704139190412 C 0.0 **** -0.24
14472 H 157.8903098229157 149.36369775214092 155.741940537076 H 0.0 **** 0.06
14473 H 157.20392213124893 149.74059769471637 157.34014035280276 H 0.0 **** 0.06
14474 H 156.14096823869332 149.64643765575306 155.91408729894067 H 0.0 **** 0.06
14475 H 157.2830955307788 151.0011214478637 156.08598376841394 H 0.0 **** 0.06
14476 C 120.04559830668876 70.491897748962 180.63904546777974 C 0.0 **** -0.24
14477 H 120.62609081102119 71.37981020596635 180.88789936914142 H 0.0 **** 0.06
14478 H 119.5523306528064 70.11719549060095 181.5368943668549 H 0.0 **** 0.06
14479 H 120.70800431763865 69.72352745052854 180.24128208739413 H 0.0 **** 0.06
14480 H 119.29409301902626 70.74620999355761 179.89143564016413 H 0.0 **** 0.06
14481 C 167.68837100772845 126.33503048353577 50.755298345524494 C 0.0 **** -0.24
14482 H 167.41883706055935 125.30865999208902 51.008514618237655 H 0.0 **** 0.06
14483 H 168.09858486103263 126.82972353592311 51.63529762065667 H 0.0 **** 0.06
14484 H 166.80110002283814 126.86983378451038 50.41661119094107 H 0.0 **** 0.06
14485 H 168.4339456410408 126.32837148289696 49.96007416822107 H 0.0 **** 0.06
14486 C 139.771906097561 147.433914825967 141.8252041844753 C 0.0 **** -0.24
14487 H 139.85242253232616 147.4585235256534 140.73847566363963 H 0.0 **** 0.06
14488 H 139.95878521733886 148.4306440439006 142.2261910304635 H 0.0 **** 0.06
14489 H 140.50828657020855 146.7374805575484 142.2276001332844 H 0.0 **** 0.06
14490 H 138.77093255635458 147.11003561191404 142.10823873955064 H 0.0 **** 0.06
14491 C 25.00564491930959 128.95391022414464 134.19869382333053 C 0.0 **** -0.24
14492 H 25.735853309615777 129.52428171780895 134.7726645768613 H 0.0 **** 0.06
14493 H 24.03904000951161 129.45583768481885 134.23908107987523 H 0.0 **** 0.06
14494 H 24.91436963876461 127.95290580392539 134.62112056724322 H 0.0 **** 0.06
14495 H 25.335188501811388 128.88112220428746 133.16242489784503 H 0.0 **** 0.06
14496 C 170.33784400325152 12.117857104788868 158.2320940964488 C 0.0 **** -0.24
14497 H 171.3542321139644 11.722979282312167 158.22907769196306 H 0.0 **** 0.06
14498 H 169.82308398802198 11.787348288100333 159.13496199582625 H 0.0 **** 0.06
14499 H 169.80418582575354 11.752935072252 157.35474797721812 H 0.0 **** 0.06
14500 H 170.37086731351073 13.207670596696573 158.2109185210623 H 0.0 **** 0.06
14501 C 104.06790750468224 158.69151699271268 18.342286511236352 C 0.0 **** -0.24
14502 H 104.63169725349087 157.76167746757946 18.272580553697367 H 0.0 **** 0.06
14503 H 103.60321377875698 158.90775326036388 17.37963132217726 H 0.0 **** 0.06
14504 H 104.74227905825359 159.50528009349273 18.6118250515878 H 0.0 **** 0.06
14505 H 103.29565329853062 158.5920466613721 19.10533793006448 H 0.0 **** 0.06
14506 C 176.6118750074392 70.28075321912384 103.03355667929367 C 0.0 **** -0.24
14507 H 177.33419595593972 71.09147049070464 102.92936282273422 H 0.0 **** 0.06
14508 H 176.9042181724967 69.4489357745481 102.39248836610335 H 0.0 **** 0.06
14509 H 175.62353435949217 70.6366934212632 102.74038653605862 H 0.0 **** 0.06
14510 H 176.58623275107624 69.94929306158387 104.0709341258451 H 0.0 **** 0.06
14511 C 166.59644626647355 138.9798753042262 15.999794940691714 C 0.0 **** -0.24
14512 H 167.3431773106271 139.33583766894532 15.288856162341915 H 0.0 **** 0.06
14513 H 165.9275783069719 139.79889328364357 16.263650124004982 H 0.0 **** 0.06
14514 H 167.09479958668322 138.61406765958498 16.89705915909684 H 0.0 **** 0.06
14515 H 166.02254759062538 138.17137473590458 15.547832017028384 H 0.0 **** 0.06
14516 C 54.07896088273051 97.62833160332615 33.251186398395305 C 0.0 **** -0.24
14517 H 54.315079307745265 96.8365227134344 32.53950025839285 H 0.0 **** 0.06
14518 H 53.423675122925545 97.23356002577923 34.02859000966254 H 0.0 **** 0.06
14519 H 53.576038132707936 98.44447837273951 32.73154465156881 H 0.0 **** 0.06
14520 H 54.99920318899575 97.99653115531125 33.70274537230159 H 0.0 **** 0.06
14521 C 7.997557570905599 9.684878247923166 120.60171477079508 C 0.0 **** -0.24
14522 H 6.975605449091006 9.62048950578054 120.2281062669377 H 0.0 **** 0.06
14523 H 8.011662224358645 9.443180965675197 121.66449595531957 H 0.0 **** 0.06
14524 H 8.375150218343975 10.696221633001215 120.45363474534652 H 0.0 **** 0.06
14525 H 8.627016386528766 8.978856184596793 120.05973800310262 H 0.0 **** 0.06
14526 C 152.215854691041 172.66610990897192 174.5835297017873 C 0.0 **** -0.24
14527 H 151.47463531332016 173.03997926454065 175.29032522961336 H 0.0 **** 0.06
14528 H 152.4377288728719 173.43979355490592 173.8485223376091 H 0.0 **** 0.06
14529 H 151.8236509174069 171.7845980500989 174.07669205750383 H 0.0 **** 0.06
14530 H 153.12766534513844 172.4015239830382 175.11992601738416 H 0.0 **** 0.06
14531 C 44.632210196219845 119.41863523572641 28.068207269802286 C 0.0 **** -0.24
14532 H 45.11083743027649 118.47813032847813 27.79709137273727 H 0.0 **** 0.06
14533 H 43.584041757326986 119.23678621876115 28.308007707346235 H 0.0 **** 0.06
14534 H 44.69725387350448 120.11359536717907 27.230801688546705 H 0.0 **** 0.06
14535 H 45.1347503567917 119.84604206063858 28.935847260975947 H 0.0 **** 0.06
14536 C 172.94910908403045 47.406205124369365 118.34061843487108 C 0.0 **** -0.24
14537 H 173.35846145648978 48.18160297807981 118.98882148060859 H 0.0 **** 0.06
14538 H 173.74246468703808 47.00408573169335 117.71090641079256 H 0.0 **** 0.06
14539 H 172.16700081207384 47.83316991372186 117.71342224175875 H 0.0 **** 0.06
14540 H 172.52929880057195 46.606904850883325 118.95205999682663 H 0.0 **** 0.06
14541 C 19.76401128415162 140.6466310175452 116.62288608686026 C 0.0 **** -0.24
14542 H 19.351776591639663 140.07749261854974 115.78881927932702 H 0.0 **** 0.06
14543 H 18.975051223054074 141.24396920084308 117.07864858259057 H 0.0 **** 0.06
14544 H 20.55354911051154 141.30381602470408 116.25872781813263 H 0.0 **** 0.06
14545 H 20.174802917348728 139.95985793860376 117.36264234678413 H 0.0 **** 0.06
14546 C 114.51485776014455 74.34889372644966 64.13574050345754 C 0.0 **** -0.24
14547 H 114.75566608230751 73.3038827656087 64.3330874788042 H 0.0 **** 0.06
14548 H 115.09101169772522 74.98612202062463 64.80563233918436 H 0.0 **** 0.06
14549 H 113.44997964700552 74.51363571861242 64.30255796040913 H 0.0 **** 0.06
14550 H 114.76254668625243 74.58953373447753 63.102114877707606 H 0.0 **** 0.06
14551 C 104.91098613756022 74.32198185208205 73.05294656068577 C 0.0 **** -0.24
14552 H 104.92969244800936 75.12759837715325 72.31862274655822 H 0.0 **** 0.06
14553 H 104.81545735827955 73.36550425483678 72.53922852901349 H 0.0 **** 0.06
14554 H 104.06440681319638 74.46087846240987 73.72391190628935 H 0.0 **** 0.06
14555 H 105.8370998688553 74.33434953897019 73.62815676155623 H 0.0 **** 0.06
14556 C 92.57060794701736 148.92698113872316 120.4906910012012 C 0.0 **** -0.24
14557 H 93.38737876990423 148.52012101042345 119.8950429458046 H 0.0 **** 0.06
14558 H 91.61891711261804 148.67852869907338 120.02047688494038 H 0.0 **** 0.06
14559 H 92.67350305333785 150.0103839092278 120.55544753031363 H 0.0 **** 0.06
14560 H 92.60388125951847 148.49810257519675 121.49270220452026 H 0.0 **** 0.06
14561 C 108.5333568409767 65.64726440629215 184.99809226833162 C 0.0 **** -0.24
14562 H 108.693756560047 66.33425272598167 185.82957730448257 H 0.0 **** 0.06
14563 H 108.17912917415055 64.6901966692641 185.38148172887162 H 0.0 **** 0.06
14564 H 109.47225281464227 65.4996475876554 184.46308757264308 H 0.0 **** 0.06
14565 H 107.79002619633161 66.06580123909097 184.319351638218 H 0.0 **** 0.06
14566 C 105.65497816947965 167.96436260346465 5.034450837350221 C 0.0 **** -0.24
14567 H 104.94533042759429 168.74699787791417 4.765399758856148 H 0.0 **** 0.06
14568 H 105.22833248787123 167.34451321464098 5.822828635608488 H 0.0 **** 0.06
14569 H 106.57939454875441 168.4204126856497 5.389921037048651 H 0.0 **** 0.06
14570 H 105.86554499171172 167.34896220380196 4.1603471248214134 H 0.0 **** 0.06
14571 C 116.68940029169538 41.39198003307828 171.12970825250596 C 0.0 **** -0.24
14572 H 117.71555193360986 41.75465885975109 171.177835256302 H 0.0 **** 0.06
14573 H 116.03360751219061 42.200035414480055 170.80480718151438 H 0.0 **** 0.06
14574 H 116.37935644588048 41.04691103315318 172.1167516130569 H 0.0 **** 0.06
14575 H 116.62889136198554 40.56671131251926 170.42033629967094 H 0.0 **** 0.06
14576 C 54.31641607513839 99.70883181718692 79.35714133623526 C 0.0 **** -0.24
14577 H 55.34212678099888 99.64945511291403 79.72118847465636 H 0.0 **** 0.06
14578 H 54.05148351058273 98.77293592700441 78.8650072216332 H 0.0 **** 0.06
14579 H 54.23104392662003 100.53055400653206 78.64592715686858 H 0.0 **** 0.06
14580 H 53.64215401708688 99.88300851993121 80.19589548718895 H 0.0 **** 0.06
14581 C 36.625746856870094 172.58709833716168 82.64506897914369 C 0.0 **** -0.24
14582 H 36.13687697289741 173.21906220794438 81.90441910441707 H 0.0 **** 0.06
14583 H 35.870397708300004 172.08901719032548 83.25393286298326 H 0.0 **** 0.06
14584 H 37.26069071788176 173.2018230147865 83.28421392592881 H 0.0 **** 0.06
14585 H 37.23631452929379 171.83967725237193 82.13909646383617 H 0.0 **** 0.06
14586 C 127.3475153152758 100.961475306293 62.32246969083529 C 0.0 **** -0.24
14587 H 127.05501572700472 100.306677371411 61.50165666871618 H 0.0 **** 0.06
14588 H 128.2163347170038 100.54182969586573 62.82969427139567 H 0.0 **** 0.06
14589 H 126.52090817265339 101.04904574303818 63.02832480360422 H 0.0 **** 0.06
14590 H 127.59656587382985 101.94664483531174 61.929449137165705 H 0.0 **** 0.06
14591 C 10.308142708935065 168.71577809515472 105.24134242427372 C 0.0 **** -0.24
14592 H 11.129912828946146 167.9996829267926 105.22179882487502 H 0.0 **** 0.06
14593 H 10.22577456439538 169.14723052231002 106.2391172809855 H 0.0 **** 0.06
14594 H 9.378075396103128 168.20674358057008 104.98711017528457 H 0.0 **** 0.06
14595 H 10.499197750275727 169.50681686870882 104.51640174721247 H 0.0 **** 0.06
14596 C 146.4896417005845 43.360783408047496 74.24338285234285 C 0.0 **** -0.24
14597 H 146.07745203005464 44.26160154598006 74.6966285793552 H 0.0 **** 0.06
14598 H 146.3898396081771 42.526087308888435 74.93877653991683 H 0.0 **** 0.06
14599 H 147.54384121633174 43.51823131004119 74.01446602696848 H 0.0 **** 0.06
14600 H 145.94810399969197 43.13553996464714 73.32498334398247 H 0.0 **** 0.06
14601 C 180.2507075127042 22.034131104458623 0.250726021438723 C 0.0 **** -0.24
14602 H 180.97097137977883 21.21899416449225 0.19102625810398166 H 0.0 **** 0.06
14603 H 180.76209853981015 22.98349269668016 0.09101956233416075 H 0.0 **** 0.06
14604 H 179.78369784886098 22.034010469252195 1.235988088489485 H 0.0 **** 0.06
14605 H 179.48577276976434 21.899420069627624 -0.51388573262345 H 0.0 **** 0.06
14606 C 5.565322009460573 13.491037533707477 163.6178535783657 C 0.0 **** -0.24
14607 H 5.111516242767834 12.73713528281862 164.2615204938819 H 0.0 **** 0.06
14608 H 6.507230327113234 13.109977329586748 163.22135737107186 H 0.0 **** 0.06
14609 H 5.753030622446431 14.396531661334294 164.1942130199821 H 0.0 **** 0.06
14610 H 4.889515120189259 13.718911674023154 162.79364621108192 H 0.0 **** 0.06
14611 C 102.40198115643967 8.991346358822653 40.00492176311673 C 0.0 **** -0.24
14612 H 102.84593437705648 8.33156659169316 40.750560795702654 H 0.0 **** 0.06
14613 H 101.7416871628419 9.704158046427239 40.49906517075891 H 0.0 **** 0.06
14614 H 101.82833302096374 8.398751322935823 39.29169856961309 H 0.0 **** 0.06
14615 H 103.1902541820006 9.529729229294958 39.4791766977886 H 0.0 **** 0.06
14616 C 67.66149108396112 43.37272812140688 110.50215192663661 C 0.0 **** -0.24
14617 H 66.69960659749421 43.77296674814443 110.82125162612373 H 0.0 **** 0.06
14618 H 67.7595605656414 43.47984870158638 109.42100995297399 H 0.0 **** 0.06
14619 H 67.72334658750219 42.31788642695648 110.77016361596297 H 0.0 **** 0.06
14620 H 68.46453930323825 43.921478231671955 110.99469659451874 H 0.0 **** 0.06
14621 C 60.02179832891467 133.4238003759874 79.77576853399134 C 0.0 **** -0.24
14622 H 59.61445493544947 134.34984443384718 79.36988661890095 H 0.0 **** 0.06
14623 H 60.980729857541775 133.62746956151204 80.2533631056055 H 0.0 **** 0.06
14624 H 60.163445775909935 132.70481434232136 78.96895725271096 H 0.0 **** 0.06
14625 H 59.32957361130839 133.01405919202318 80.510944330646 H 0.0 **** 0.06
14626 C 62.826748266695134 32.72067169930186 36.155520475035416 C 0.0 **** -0.24
14627 H 62.69981736009028 33.4279300952834 35.33510746828409 H 0.0 **** 0.06
14628 H 61.8495322922134 32.453242618245724 36.55836784711647 H 0.0 **** 0.06
14629 H 63.42983454729949 33.178826886053926 36.93965065271448 H 0.0 **** 0.06
14630 H 63.327013757978094 31.82472492828292 35.78849162749316 H 0.0 **** 0.06
14631 C 22.359447349644512 119.11596729744049 141.4357597535435 C 0.0 **** -0.24
14632 H 22.558015339822248 120.1085798803888 141.83982209222592 H 0.0 **** 0.06
14633 H 23.303689466562616 118.60221888239168 141.25255555484443 H 0.0 **** 0.06
14634 H 21.808716297116973 119.20806063083309 140.49983428639348 H 0.0 **** 0.06
14635 H 21.76736829507621 118.54500979614828 142.15082708071037 H 0.0 **** 0.06
14636 C 158.379836065282 32.45004620700422 178.95483209426266 C 0.0 **** -0.24
14637 H 159.2978490234318 31.865109701912473 179.00952991569727 H 0.0 **** 0.06
14638 H 158.31267493311884 32.92870502217852 177.97696935994543 H 0.0 **** 0.06
14639 H 158.38929548547912 33.21234480197546 179.73286403168808 H 0.0 **** 0.06
14640 H 157.5223050458959 31.793395059466775 179.09859635480655 H 0.0 **** 0.06
14641 C 80.08595627934261 10.660186073799665 72.44886620846307 C 0.0 **** -0.24
14642 H 79.93686841466382 9.832108092812305 73.14203648856915 H 0.0 **** 0.06
14643 H 81.01230296266118 10.507098833151325 71.89546267121051 H 0.0 **** 0.06
14644 H 80.14591021878425 11.594041600355581 73.00727710474996 H 0.0 **** 0.06
14645 H 79.24940339154239 10.705476653715571 71.75280705170451 H 0.0 **** 0.06
14646 C 84.59293417867543 26.74036607408442 167.29207384439042 C 0.0 **** -0.24
14647 H 84.67400806435205 27.81458574455357 167.4555897977674 H 0.0 **** 0.06
14648 H 85.4394427894412 26.398628955040408 166.69513639710834 H 0.0 **** 0.06
14649 H 83.66453256906259 26.523366279686797 166.76376342009294 H 0.0 **** 0.06
14650 H 84.59345977826104 26.225927920518927 168.25289873292786 H 0.0 **** 0.06
14651 C 60.22379306941164 127.47552849975143 163.70284736613127 C 0.0 **** -0.24
14652 H 60.60923230659614 127.97139501465632 162.81310621993248 H 0.0 **** 0.06
14653 H 59.31460176248078 127.97780094925317 164.0331758619507 H 0.0 **** 0.06
14654 H 60.97136434489681 127.51797007523389 164.4955076247046 H 0.0 **** 0.06
14655 H 59.99993886788343 126.43427639660537 163.47033989495276 H 0.0 **** 0.06
14656 C 74.92764338650296 30.669550132567323 35.64664322151913 C 0.0 **** -0.24
14657 H 74.44399251597696 30.971986399276588 36.57564134378953 H 0.0 **** 0.06
14658 H 74.2002091582502 30.693293968080226 34.83498070088484 H 0.0 **** 0.06
14659 H 75.31829328548754 29.656776883864595 35.7546173510907 H 0.0 **** 0.06
14660 H 75.74545052520611 31.3530989677178 35.42301454147463 H 0.0 **** 0.06
14661 C 148.74564539661344 66.39795841394347 81.55609928645637 C 0.0 **** -0.24
14662 H 148.03544945997226 66.91956720707778 80.91498670169757 H 0.0 **** 0.06
14663 H 148.22115219077608 65.63770275501022 82.13594547554753 H 0.0 **** 0.06
14664 H 149.21578356727838 67.1116972553493 82.23369014129511 H 0.0 **** 0.06
14665 H 149.5098544069096 65.92314238154437 80.94111906204803 H 0.0 **** 0.06
14666 C 117.59643816945379 112.99451255049819 161.74629510416165 C 0.0 **** -0.24
14667 H 116.82556606628583 113.76007567233613 161.839078135777 H 0.0 **** 0.06
14668 H 118.33977948977986 113.31565558919534 161.01566645146082 H 0.0 **** 0.06
14669 H 117.14249220281994 112.0602604421256 161.41753775784855 H 0.0 **** 0.06
14670 H 118.07712213512082 112.84571378868968 162.71300147498965 H 0.0 **** 0.06
14671 C 131.90045800979527 129.0851526917349 129.32232213216122 C 0.0 **** -0.24
14672 H 131.57219580776712 128.14333334332918 128.88236803140074 H 0.0 **** 0.06
14673 H 131.7618268603573 129.04862322262966 130.40189904676043 H 0.0 **** 0.06
14674 H 131.31214065809849 129.90375787968333 128.90655581837512 H 0.0 **** 0.06
14675 H 132.95473969235564 129.24437835214871 129.09487829678943 H 0.0 **** 0.06
14676 C 181.64628923026265 103.18602769668946 28.577326082032158 C 0.0 **** -0.24
14677 H 181.8751888514629 102.52861929779122 29.41525715871728 H 0.0 **** 0.06
14678 H 180.79181549828547 103.81453615712955 28.8315900426378 H 0.0 **** 0.06
14679 H 181.407007255028 102.58555968696804 27.699278995757993 H 0.0 **** 0.06
14680 H 182.50950030352982 103.81560092524028 28.36267626730435 H 0.0 **** 0.06
14681 C 183.59924016187648 147.27379761686365 93.66811181301689 C 0.0 **** -0.24
14682 H 184.26721785442209 146.58877580951727 94.19141126680735 H 0.0 **** 0.06
14683 H 182.60862180031864 146.82674550683768 93.59079420464256 H 0.0 **** 0.06
14684 H 183.98907187984815 147.46948373490267 92.66963872071337 H 0.0 **** 0.06
14685 H 183.5346283585087 148.21020232122302 94.22213519202423 H 0.0 **** 0.06
14686 C 64.49671310989663 87.81096745854408 121.09179503645765 C 0.0 **** -0.24
14687 H 63.524956091498154 88.11661363924996 120.70297362155515 H 0.0 **** 0.06
14688 H 64.59000223660327 88.13079627846476 122.12977771232744 H 0.0 **** 0.06
14689 H 65.28680942905252 88.27005532435352 120.49742603848642 H 0.0 **** 0.06
14690 H 64.58471877901367 86.72606353375708 121.03613685279305 H 0.0 **** 0.06
14691 C 15.156746465427005 141.79451468981517 128.26949231543523 C 0.0 **** -0.24
14692 H 16.118456617975816 142.08034458230486 127.84336883584757 H 0.0 **** 0.06
14693 H 15.19496397444356 141.89998650509347 129.3542293847371 H 0.0 **** 0.06
14694 H 14.9388371663049 140.75825654627874 128.01221630448447 H 0.0 **** 0.06
14695 H 14.376193278505248 142.44115700305895 127.86804889998683 H 0.0 **** 0.06
14696 C 134.04106341453877 114.60207618402517 125.51263659354693 C 0.0 **** -0.24
14697 H 133.70448645394998 113.99323728639631 126.3522183515948 H 0.0 **** 0.06
14698 H 135.1135642258638 114.77703835227372 125.59882602133597 H 0.0 **** 0.06
14699 H 133.51417911056126 115.55699509409665 125.52274624950813 H 0.0 **** 0.06
14700 H 133.83084615294138 114.0806380339374 124.57948639607405 H 0.0 **** 0.06
14701 C 114.70126490006994 86.30592813846557 94.97847159000058 C 0.0 **** -0.24
14702 H 115.44877859501723 86.32556279747801 94.18613322093937 H 0.0 **** 0.06
14703 H 113.705790599184 86.38211633058098 94.54097800071362 H 0.0 **** 0.06
14704 H 114.86667443890592 87.14455529165998 95.65428112502086 H 0.0 **** 0.06
14705 H 114.78381596717274 85.37147813414335 95.53249401332822 H 0.0 **** 0.06
14706 C 125.09273594345704 159.2154065916579 183.39101378035457 C 0.0 **** -0.24
14707 H 124.9709300282869 158.94635638227786 184.44043013095316 H 0.0 **** 0.06
14708 H 125.87707074517958 158.60257238607187 182.94760031618023 H 0.0 **** 0.06
14709 H 125.36559660969333 160.267891103017 183.31432106680018 H 0.0 **** 0.06
14710 H 124.15510337758725 159.0439910041853 182.86115223201608 H 0.0 **** 0.06
14711 C 85.27840751933759 123.0822231512988 126.82378734585541 C 0.0 **** -0.24
14712 H 85.12418122945446 123.10068222089929 125.7450529624802 H 0.0 **** 0.06
14713 H 84.63690995937222 123.82751663029943 127.29452600547705 H 0.0 **** 0.06
14714 H 86.32190677489923 123.30859939828805 127.04447599511195 H 0.0 **** 0.06
14715 H 85.03082115759007 122.09315515959959 127.20913506304487 H 0.0 **** 0.06
14716 C 163.33501162954542 30.209346736726246 9.04328327899163 C 0.0 **** -0.24
14717 H 162.3437476179032 29.755592924037188 9.054169628331302 H 0.0 **** 0.06
14718 H 163.5991186969693 30.480163049462192 8.020716723411013 H 0.0 **** 0.06
14719 H 164.06429189298314 29.496889336913824 9.43021239416175 H 0.0 **** 0.06
14720 H 163.33291477291408 31.102382579130193 9.667375358388348 H 0.0 **** 0.06
14721 C 159.65385461689618 113.24022639363125 43.54615854116906 C 0.0 **** -0.24
14722 H 159.04721082825913 113.22079982218975 42.640865063061824 H 0.0 **** 0.06
14723 H 160.67151794411774 113.54223818017857 43.29476115735264 H 0.0 **** 0.06
14724 H 159.67004599656184 112.24639232891275 43.994013501099516 H 0.0 **** 0.06
14725 H 159.22723473103986 113.9513436315869 44.25371639444987 H 0.0 **** 0.06
14726 C 20.217190273414758 122.77060375253485 119.57382591888309 C 0.0 **** -0.24
14727 H 20.18024854043415 123.0807668236571 118.52944210731089 H 0.0 **** 0.06
14728 H 20.833491703503626 123.4698484083484 120.13879389875653 H 0.0 **** 0.06
14729 H 20.6468364549292 121.77105254775007 119.64082527002985 H 0.0 **** 0.06
14730 H 19.207439249992234 122.76130550144082 119.9847818629586 H 0.0 **** 0.06
14731 C 16.645168236893312 126.19690829631975 7.54173733586299 C 0.0 **** -0.24
14732 H 15.969343024684008 126.05735072797046 8.38554438368459 H 0.0 **** 0.06
14733 H 16.705618936896258 125.27213279193057 6.9693718039281976 H 0.0 **** 0.06
14734 H 17.636669868256206 126.46262706382066 7.910415314564148 H 0.0 **** 0.06
14735 H 16.2694483623236 126.99663784541286 6.903760393790094 H 0.0 **** 0.06
14736 C 77.45146700856627 150.8121859129164 130.34022439488155 C 0.0 **** -0.24
14737 H 77.63054789380895 150.03445151165536 129.59785279000369 H 0.0 **** 0.06
14738 H 76.68876249931382 150.47583009371823 131.0418089815712 H 0.0 **** 0.06
14739 H 77.11226288295516 151.71874543413162 129.84080101219757 H 0.0 **** 0.06
14740 H 78.37639907646657 151.01873256764068 130.87882119769927 H 0.0 **** 0.06
14741 C 35.08793134609253 134.97538382883295 132.81720157792086 C 0.0 **** -0.24
14742 H 36.01929056250931 135.54095509673778 132.84939660787944 H 0.0 **** 0.06
14743 H 34.63404590007626 134.96715657628482 133.80877442292507 H 0.0 **** 0.06
14744 H 35.29642983218942 133.9517937475478 132.5034387241564 H 0.0 **** 0.06
14745 H 34.404694703409035 135.4409671495016 132.10691837782008 H 0.0 **** 0.06
14746 C 121.30461980916623 9.250520604644798 81.11196594177113 C 0.0 **** -0.24
14747 H 120.63995530787894 10.113742391613293 81.08747928572825 H 0.0 **** 0.06
14748 H 120.76534699724452 8.388229776998315 81.50405869353403 H 0.0 **** 0.06
14749 H 122.1587931829094 9.46781672742025 81.75242950761793 H 0.0 **** 0.06
14750 H 121.6542736681556 9.032893138716055 80.10262019550152 H 0.0 **** 0.06
14751 C 22.824680098015676 115.05209772598732 56.48082018749656 C 0.0 **** -0.24
14752 H 22.32522575502867 116.0085924630659 56.321353634364314 H 0.0 **** 0.06
14753 H 22.371440360791098 114.29591744852587 55.83954372534974 H 0.0 **** 0.06
14754 H 22.7174142288101 114.75531814220636 57.52426845250932 H 0.0 **** 0.06
14755 H 23.882387540052207 115.14984352160792 56.23630211171752 H 0.0 **** 0.06
14756 C 53.73343187850452 181.92172503704356 47.373128077890726 C 0.0 **** -0.24
14757 H 54.18880978629929 182.85495954898187 47.04190358052887 H 0.0 **** 0.06
14758 H 53.43438530395446 181.33581856842866 46.50351371489677 H 0.0 **** 0.06
14759 H 52.85723659675699 182.14111424616502 47.983044924778056 H 0.0 **** 0.06
14760 H 54.45447267266141 181.35558080005137 47.96351461304249 H 0.0 **** 0.06
14761 C 11.641392156734952 148.109986034309 159.07051487579594 C 0.0 **** -0.24
14762 H 10.687816317392276 147.65623030837216 158.8011856830603 H 0.0 **** 0.06
14763 H 12.238814068371312 148.2606350516903 158.17084198026555 H 0.0 **** 0.06
14764 H 12.175841214350044 147.45256718421336 159.7562728677354 H 0.0 **** 0.06
14765 H 11.46309702682612 149.07051159296014 159.55375897212247 H 0.0 **** 0.06
14766 C 113.63812019302203 152.34962394827997 46.28848877760919 C 0.0 **** -0.24
14767 H 112.78763988604213 152.53025959517498 46.944592681057145 H 0.0 **** 0.06
14768 H 113.59372363411184 151.3288297571159 45.908299957713496 H 0.0 **** 0.06
14769 H 114.56363274045144 152.49127189521676 46.84538797323364 H 0.0 **** 0.06
14770 H 113.60675545340753 153.04961553041682 45.453169427422154 H 0.0 **** 0.06
14771 C 154.3400954273879 123.41631904256973 46.46561779286861 C 0.0 **** -0.24
14772 H 155.169211858795 124.07495862285045 46.72388743057098 H 0.0 **** 0.06
14773 H 154.25219540584314 122.63189918322986 47.21753563518905 H 0.0 **** 0.06
14774 H 154.52421067152966 122.9657131865659 45.490412532755215 H 0.0 **** 0.06
14775 H 153.4162680992564 123.99201051140649 46.431140069389585 H 0.0 **** 0.06
14776 C 18.274583324282823 168.6223608790603 126.48863717294279 C 0.0 **** -0.24
14777 H 18.782075716291928 168.41299302385735 125.54681131625523 H 0.0 **** 0.06
14778 H 18.95330397436279 168.42593208528905 127.31866028912043 H 0.0 **** 0.06
14779 H 17.39672188545 167.98305393357913 126.57709204314898 H 0.0 **** 0.06
14780 H 17.96713248849406 169.66824624848826 126.50923228675583 H 0.0 **** 0.06
14781 C 129.57790100315538 162.01169670202341 48.070947599943395 C 0.0 **** -0.24
14782 H 129.17874974715482 162.87719990592066 47.54221530570777 H 0.0 **** 0.06
14783 H 129.33742046637343 162.0925404751187 49.131494526919596 H 0.0 **** 0.06
14784 H 130.65978455976 161.97729490179665 47.94438204877906 H 0.0 **** 0.06
14785 H 129.13597992497643 161.1021771513598 47.665614059456686 H 0.0 **** 0.06
14786 C 54.93192132792551 176.43131688115133 25.06195284333714 C 0.0 **** -0.24
14787 H 55.64356367881413 177.09353902208568 24.57002872771281 H 0.0 **** 0.06
14788 H 54.26901271194711 177.0187508662611 25.697664143297175 H 0.0 **** 0.06
14789 H 55.472514058184416 175.70645651950957 25.672219480493084 H 0.0 **** 0.06
14790 H 54.344627271885045 175.9058502393744 24.309090401285914 H 0.0 **** 0.06
14791 C 7.815319127278684 79.6826753718488 110.3042358930645 C 0.0 **** -0.24
14792 H 6.761135605130306 79.4408470075893 110.43855826751847 H 0.0 **** 0.06
14793 H 8.286534924699808 78.91920948808604 109.68527314922282 H 0.0 **** 0.06
14794 H 8.306637421297303 79.71833207684858 111.27664028418384 H 0.0 **** 0.06
14795 H 7.905240253974192 80.65365806041893 109.81602057069166 H 0.0 **** 0.06
14796 C 146.49299532808823 106.19194284096984 33.67725209433246 C 0.0 **** -0.24
14797 H 145.91653357704865 106.96918018865385 33.175650344026735 H 0.0 **** 0.06
14798 H 146.95795817674943 105.54603806672706 32.93164699438947 H 0.0 **** 0.06
14799 H 145.8313241281032 105.60021698818734 34.309966173332555 H 0.0 **** 0.06
14800 H 147.26644697676934 106.65327669784445 34.2915549437821 H 0.0 **** 0.06
14801 C 72.29251208480775 12.048376193715512 144.50408141055019 C 0.0 **** -0.24
14802 H 72.71759314065751 11.707631533380209 143.5594452047835 H 0.0 **** 0.06
14803 H 72.58680486944604 13.083124819418572 144.68239132778405 H 0.0 **** 0.06
14804 H 72.66035776608896 11.420651769468748 145.31533103284633 H 0.0 **** 0.06
14805 H 71.2057646641777 11.982199440475199 144.45697480430235 H 0.0 **** 0.06
14806 C 144.94723753352605 133.6757712314266 63.188108089569084 C 0.0 **** -0.24
14807 H 145.7049821141577 132.89260222109658 63.21320423360777 H 0.0 **** 0.06
14808 H 144.11431137842123 133.3950910969878 63.83316859762033 H 0.0 **** 0.06
14809 H 144.5895202703707 133.8028008021492 62.16664237996008 H 0.0 **** 0.06
14810 H 145.38131195443947 134.6118811881205 63.540472855996484 H 0.0 **** 0.06
14811 C 58.73014297189454 117.8192346112844 36.94760579966028 C 0.0 **** -0.24
14812 H 58.88737843593742 118.46730523444228 37.80944617019129 H 0.0 **** 0.06
14813 H 58.362164166492434 118.41233131854602 36.11003653537746 H 0.0 **** 0.06
14814 H 57.99717466574417 117.05274034805672 37.20041280868473 H 0.0 **** 0.06
14815 H 59.67195686301454 117.34474311850164 36.672617121905276 H 0.0 **** 0.06
14816 C 128.78014678535845 131.95238765384642 121.32466080981037 C 0.0 **** -0.24
14817 H 128.11107782203698 131.13189150756858 121.06634289141725 H 0.0 **** 0.06
14818 H 129.49149606755645 132.11019310004332 120.51333225146207 H 0.0 **** 0.06
14819 H 129.3200528973495 131.70644896228345 122.23935580106463 H 0.0 **** 0.06
14820 H 128.1971009611678 132.8604599264852 121.47863704611883 H 0.0 **** 0.06
14821 C 108.27668289588716 155.37562190460383 36.455559297585694 C 0.0 **** -0.24
14822 H 108.86539101097777 154.61187046469973 36.9634941864106 H 0.0 **** 0.06
14823 H 108.80818038393933 155.71038099883026 35.564709066703415 H 0.0 **** 0.06
14824 H 108.12263109949099 156.2207599500817 37.126710621467126 H 0.0 **** 0.06
14825 H 107.31098398253938 154.95811313938088 36.168290372530436 H 0.0 **** 0.06
14826 C 125.14621841576752 34.85857470870616 103.98220215282215 C 0.0 **** -0.24
14827 H 125.74061277261688 34.28432501208886 103.27201697901042 H 0.0 **** 0.06
14828 H 125.78493251401284 35.20311990653539 104.79613476462784 H 0.0 **** 0.06
14829 H 124.35284982633806 34.22842620391131 104.38486270481793 H 0.0 **** 0.06
14830 H 124.70589946665427 35.71788150385879 103.4773324712721 H 0.0 **** 0.06
14831 C 51.02930210970203 168.9131568114152 25.877455411314088 C 0.0 **** -0.24
14832 H 51.491926930851946 169.54545287329003 25.120147475750784 H 0.0 **** 0.06
14833 H 51.615288263235925 168.00116990663528 25.997048507837647 H 0.0 **** 0.06
14834 H 50.016251039880444 168.6562645724219 25.565369991455384 H 0.0 **** 0.06
14835 H 50.9916302443703 169.44886084334988 26.825314764091388 H 0.0 **** 0.06
14836 C 123.68639502534477 64.23823968680767 109.23262483898553 C 0.0 **** -0.24
14837 H 124.54682720608601 64.84540011492118 108.95180455160285 H 0.0 **** 0.06
14838 H 123.50595822488584 64.33748671404658 110.30375834709231 H 0.0 **** 0.06
14839 H 123.88458824236461 63.193705689188135 108.99280921528045 H 0.0 **** 0.06
14840 H 122.8086335203922 64.57802515070455 108.68387816156532 H 0.0 **** 0.06
14841 C 56.11639502974873 60.28863904812073 26.420030833838 C 0.0 **** -0.24
14842 H 55.344702557127164 60.465091309779154 27.169789933226312 H 0.0 **** 0.06
14843 H 55.68032595787895 60.36820687833966 25.424591197038538 H 0.0 **** 0.06
14844 H 56.533108964858286 59.290659034577004 26.556246668961933 H 0.0 **** 0.06
14845 H 56.90740174416857 61.03003755623985 26.531659621614722 H 0.0 **** 0.06
14846 C 24.585396529256997 119.85587134111505 2.2951237263242774 C 0.0 **** -0.24
14847 H 25.091836847202856 120.64850703431013 1.745414533595607 H 0.0 **** 0.06
14848 H 24.589098846474954 118.94156446892787 1.7009523520645473 H 0.0 **** 0.06
14849 H 23.556906813495473 120.15411359970214 2.497733734183555 H 0.0 **** 0.06
14850 H 25.10349499264052 119.67915987564707 3.237352672641606 H 0.0 **** 0.06
14851 C 21.63475495546625 62.634511906211586 84.13454157447647 C 0.0 **** -0.24
14852 H 21.315596695804075 63.517509234508935 84.68761306192575 H 0.0 **** 0.06
14853 H 20.883227885797368 61.85112048336532 84.23671948785928 H 0.0 **** 0.06
14854 H 22.58605967461213 62.28016752234416 84.53309242925188 H 0.0 **** 0.06
14855 H 21.754513323221758 62.889990797249624 83.0818854944665 H 0.0 **** 0.06
14856 C 46.06859130821067 132.8174252654921 111.95745275253309 C 0.0 **** -0.24
14857 H 46.65727302596969 132.0994387031597 111.38613541215538 H 0.0 **** 0.06
14858 H 46.73571217979634 133.45429028626063 112.53727256937832 H 0.0 **** 0.06
14859 H 45.39926275467491 132.28217141001937 112.63059237311144 H 0.0 **** 0.06
14860 H 45.481098167112236 133.4309476638511 111.27361471173442 H 0.0 **** 0.06
14861 C 137.1105629836465 99.32612310513927 102.98519360055361 C 0.0 **** -0.24
14862 H 137.85186588225383 98.56647429585284 102.73594256721792 H 0.0 **** 0.06
14863 H 136.56790868445103 99.02367012947768 103.88132076473185 H 0.0 **** 0.06
14864 H 136.41103573039265 99.43689663489819 102.15677268999558 H 0.0 **** 0.06
14865 H 137.61187018351848 100.27654936703378 103.16668564402217 H 0.0 **** 0.06
14866 C 91.61910346898235 109.33579011522751 152.67597280625915 C 0.0 **** -0.24
14867 H 91.0279227739852 110.24725582750024 152.76678037493124 H 0.0 **** 0.06
14868 H 92.31918361621747 109.27334944108914 153.51027153058195 H 0.0 **** 0.06
14869 H 92.1726264189018 109.35407010872528 151.73741351833723 H 0.0 **** 0.06
14870 H 90.95743499161371 108.47092148207501 152.6906488128712 H 0.0 **** 0.06
14871 C 131.66623336770277 41.21568802456501 113.35432836646892 C 0.0 **** -0.24
14872 H 130.977971017367 42.06029331981637 113.39571933445889 H 0.0 **** 0.06
14873 H 132.63896754410763 41.52092873990412 113.74109407391991 H 0.0 **** 0.06
14874 H 131.77301474841573 40.88432132439854 112.32098416808883 H 0.0 **** 0.06
14875 H 131.273991486402 40.39858399562134 113.95915367718963 H 0.0 **** 0.06
14876 C 13.710180277683179 75.09239624218844 88.80809263901948 C 0.0 **** -0.24
14877 H 14.789082963141624 74.97277434707519 88.7115579312652 H 0.0 **** 0.06
14878 H 13.397446309940534 76.00129549161693 88.29323148804058 H 0.0 **** 0.06
14879 H 13.445505851149505 75.16282230490117 89.86337458900182 H 0.0 **** 0.06
14880 H 13.208114258691182 74.23205355744074 88.36472083252447 H 0.0 **** 0.06
14881 C 62.42414837134541 182.11348739853895 76.87504003498304 C 0.0 **** -0.24
14882 H 63.02794755386881 182.72336874598048 77.5462215495836 H 0.0 **** 0.06
14883 H 61.4425916777803 182.57212130105972 76.75207343709116 H 0.0 **** 0.06
14884 H 62.309109431819294 181.11490145144566 77.297095153025 H 0.0 **** 0.06
14885 H 62.91694482191336 182.04355809566974 75.90477000023247 H 0.0 **** 0.06
14886 C 34.96931842806896 145.24100185825267 183.758516141595 C 0.0 **** -0.24
14887 H 35.13845834958734 146.313762861157 183.8510519616022 H 0.0 **** 0.06
14888 H 33.92169859272053 145.01999904331257 183.96248867882804 H 0.0 **** 0.06
14889 H 35.5992068414117 144.71086522841216 184.4728431695052 H 0.0 **** 0.06
14890 H 35.21818230405536 144.92040275541132 182.74630945380534 H 0.0 **** 0.06
14891 C 47.9925754572825 140.55113913255764 74.52619743694322 C 0.0 **** -0.24
14892 H 48.825437264909624 140.97418527146152 73.96428681806486 H 0.0 **** 0.06
14893 H 48.24915202378412 139.5430082447184 74.85096031978424 H 0.0 **** 0.06
14894 H 47.10697009111081 140.5155430983512 73.89227125490038 H 0.0 **** 0.06
14895 H 47.79021933734907 141.17325837956702 75.39813723436981 H 0.0 **** 0.06
14896 C 166.4189279216141 129.81715693031066 114.41617961075504 C 0.0 **** -0.24
14897 H 166.0889917163476 130.0147400632003 115.43569437260662 H 0.0 **** 0.06
14898 H 165.9045451320029 128.93534841678843 114.03255025156629 H 0.0 **** 0.06
14899 H 167.4945317468439 129.6416609613981 114.41089467209237 H 0.0 **** 0.06
14900 H 166.1879619932203 130.67615332818917 113.78618969678321 H 0.0 **** 0.06
14901 C 24.1372127427677 132.19698633662688 11.748595455850598 C 0.0 **** -0.24
14902 H 23.931950364023805 131.73008491917022 10.784852333466091 H 0.0 **** 0.06
14903 H 25.135662493825464 131.91592522104457 12.083080282289622 H 0.0 **** 0.06
14904 H 23.401107393036852 131.86202484508652 12.47873246558516 H 0.0 **** 0.06
14905 H 24.08019311696961 133.28075993635048 11.645649267203076 H 0.0 **** 0.06
14906 C 82.69738301083164 127.59312420863178 4.478556907402066 C 0.0 **** -0.24
14907 H 81.708487608985 127.92752236449063 4.163631295767715 H 0.0 **** 0.06
14908 H 82.80899441906394 126.53216214553986 4.253957779316835 H 0.0 **** 0.06
14909 H 82.80974839110723 127.7522368800857 5.550718521517524 H 0.0 **** 0.06
14910 H 83.45966165770693 128.16042644682688 3.944185494467547 H 0.0 **** 0.06
14911 C 147.30306284725225 36.19650818214808 23.502588651338556 C 0.0 **** -0.24
14912 H 147.29955394022394 37.2799627012885 23.382908417381515 H 0.0 **** 0.06
14913 H 146.4344346214609 35.77239809233029 22.997323335658592 H 0.0 **** 0.06
14914 H 147.2635738645582 35.948524113448286 24.5633058082544 H 0.0 **** 0.06
14915 H 148.21370005365665 35.785850745946334 23.066090404216652 H 0.0 **** 0.06
14916 C 64.0369561750967 121.60130387276168 14.192320420398858 C 0.0 **** -0.24
14917 H 62.957464259978224 121.75108746342256 14.234846648553969 H 0.0 **** 0.06
14918 H 64.24921722435549 120.58492151820171 13.861200335998547 H 0.0 **** 0.06
14919 H 64.46404779278949 121.75848515580095 15.1828385479335 H 0.0 **** 0.06
14920 H 64.4740687723224 122.311417021157 13.489799761726886 H 0.0 **** 0.06
14921 C 14.607974852275106 159.80998821626423 118.0974382747454 C 0.0 **** -0.24
14922 H 13.987546224337109 158.91574522002594 118.15568895627615 H 0.0 **** 0.06
14923 H 14.552975916361675 160.35234062375633 119.04058848112248 H 0.0 **** 0.06
14924 H 14.250183524630984 160.4475019157493 117.28916294833294 H 0.0 **** 0.06
14925 H 15.6410314546481 159.5219131806628 117.90259168183127 H 0.0 **** 0.06
14926 C 8.680231229561684 109.39497852004268 125.80589964930067 C 0.0 **** -0.24
14927 H 9.384361406222126 109.98702748186582 125.22267238301538 H 0.0 **** 0.06
14928 H 8.170903101898176 110.0387027223411 126.52304842945506 H 0.0 **** 0.06
14929 H 9.218913126907978 108.61129347805979 126.33838338253747 H 0.0 **** 0.06
14930 H 7.946939785946995 108.94185903080381 125.13854610159154 H 0.0 **** 0.06
14931 C 46.909225040584616 125.30920285864364 54.84858866811203 C 0.0 **** -0.24
14932 H 46.547108703504406 125.5408012164474 55.85046856753371 H 0.0 **** 0.06
14933 H 47.56263764824996 124.43718445415551 54.891381852392385 H 0.0 **** 0.06
14934 H 47.464428342227976 126.161279489932 54.45702761386531 H 0.0 **** 0.06
14935 H 46.06208177175533 125.09657701739648 54.19628053272663 H 0.0 **** 0.06
14936 C 171.92543146433076 173.6068797355782 154.8731396761027 C 0.0 **** -0.24
14937 H 171.16487307265962 173.47375724143393 154.10418929951754 H 0.0 **** 0.06
14938 H 172.84218052314492 173.1012105603291 154.56908174834098 H 0.0 **** 0.06
14939 H 171.56973434610944 173.18119167360948 155.8126058288763 H 0.0 **** 0.06
14940 H 172.12399221962514 174.66935086822022 155.00893381298172 H 0.0 **** 0.06
14941 C 142.0348647138083 115.14375532473639 155.47022359612862 C 0.0 **** -0.24
14942 H 141.2833040872443 115.76717215641679 155.95539517516914 H 0.0 **** 0.06
14943 H 142.14574654281216 115.45132477478103 154.43069168115835 H 0.0 **** 0.06
14944 H 141.72253050983943 114.10049564308792 155.50985856018258 H 0.0 **** 0.06
14945 H 142.98842612712593 115.25744815257843 155.9868685036732 H 0.0 **** 0.06
14946 C 118.34241724936561 58.38758007441126 131.73065748495998 C 0.0 **** -0.24
14947 H 117.81866554776309 59.01483847896297 132.4526120777777 H 0.0 **** 0.06
14948 H 119.41698652033256 58.451650040338535 131.90572980717138 H 0.0 **** 0.06
14949 H 118.11741321559236 58.73170732266753 130.72087136887012 H 0.0 **** 0.06
14950 H 118.01659727820953 57.353853169340326 131.84330906727064 H 0.0 **** 0.06
14951 C 134.78588369008838 68.20099543747801 65.50018943903167 C 0.0 **** -0.24
14952 H 134.53063169564763 67.92298110451543 66.52267699831108 H 0.0 **** 0.06
14953 H 135.83773035054128 68.4832399107263 65.45264968291029 H 0.0 **** 0.06
14954 H 134.16836941271464 69.04305997834922 65.18743107824064 H 0.0 **** 0.06
14955 H 134.60582230795433 67.3536845227203 64.83807049815789 H 0.0 **** 0.06
14956 C 61.28543558017816 65.61849863503272 154.2487452837909 C 0.0 **** -0.24
14957 H 61.049417066756874 65.54211119295289 155.3101644208103 H 0.0 **** 0.06
14958 H 61.00190707002329 66.60712855222022 153.8848580957361 H 0.0 **** 0.06
14959 H 60.73360032615524 64.85617158329069 153.69898290156465 H 0.0 **** 0.06
14960 H 62.354621296194935 65.47026362019872 154.10213828611165 H 0.0 **** 0.06
14961 C 60.193009900771415 89.44528548232034 50.35253866621741 C 0.0 **** -0.24
14962 H 59.31560774769352 89.21628948675271 50.95646385343656 H 0.0 **** 0.06
14963 H 60.65944911345724 88.51765240253502 50.02265131645804 H 0.0 **** 0.06
14964 H 60.90422543696147 90.01800486704252 50.94881239713888 H 0.0 **** 0.06
14965 H 59.892946829501454 90.03184038740454 49.48362964672455 H 0.0 **** 0.06
14966 C 133.7034515251588 72.97684459620315 19.902997304278017 C 0.0 **** -0.24
14967 H 133.75277046608215 74.05819667720982 20.029759582984923 H 0.0 **** 0.06
14968 H 132.66434938010053 72.65137047189913 19.957483109279565 H 0.0 **** 0.06
14969 H 134.27874315421656 72.49221781753512 20.691706873654056 H 0.0 **** 0.06
14970 H 134.1190474806287 72.70640657919523 18.932694451942865 H 0.0 **** 0.06
14971 C 171.7463457525818 77.97251305805631 117.49784281168401 C 0.0 **** -0.24
14972 H 172.74085424064447 78.25861157739352 117.15579769405558 H 0.0 **** 0.06
14973 H 171.82818729344245 77.42096324543424 118.43459738857543 H 0.0 **** 0.06
14974 H 171.27027548072223 77.34386872797505 116.74572463526194 H 0.0 **** 0.06
14975 H 171.14574998833743 78.8690192224525 117.65555082751355 H 0.0 **** 0.06
14976 C 41.42294873722324 85.05173047367806 135.44080312460136 C 0.0 **** -0.24
14977 H 40.412383499009195 84.9712775002721 135.03989716309997 H 0.0 **** 0.06
14978 H 41.8218947096388 84.05382875001378 135.62364904757254 H 0.0 **** 0.06
14979 H 41.39883993713971 85.6106249968578 136.37677217467603 H 0.0 **** 0.06
14980 H 42.05833545754302 85.57158344265271 134.72374805681602 H 0.0 **** 0.06
14981 C 171.38521303791313 149.0500374037112 177.2361755083376 C 0.0 **** -0.24
14982 H 171.85705018347048 149.9621274246127 176.8695136931059 H 0.0 **** 0.06
14983 H 171.63063828582892 148.22183892433543 176.57047203121243 H 0.0 **** 0.06
14984 H 170.30469252748568 149.18585873966873 177.2649387187036 H 0.0 **** 0.06
14985 H 171.75088277216807 148.83007216292043 178.2394303684311 H 0.0 **** 0.06
14986 C 89.13750053899851 30.472299076694924 2.665719177920522 C 0.0 **** -0.24
14987 H 88.49477668410653 30.482991189668667 1.7847049213759618 H 0.0 **** 0.06
14988 H 89.84031042581451 29.643189940495915 2.5917148854458745 H 0.0 **** 0.06
14989 H 88.52510127851214 30.35133457476593 3.559779646051929 H 0.0 **** 0.06
14990 H 89.68713941128253 31.41213737928041 2.725052629612236 H 0.0 **** 0.06
14991 C 170.92825639215764 185.24354176262625 116.83544481247081 C 0.0 **** -0.24
14992 H 171.74110875260104 184.54952409794976 116.62153855839775 H 0.0 **** 0.06
14993 H 169.97953713505777 184.79200979034573 116.5452534723516 H 0.0 **** 0.06
14994 H 171.07996996911163 186.16461853202253 116.27312824127178 H 0.0 **** 0.06
14995 H 170.91338554855636 185.46709831545508 117.90295815218788 H 0.0 **** 0.06
14996 C 78.0966521512151 123.43294436657159 125.75857300073108 C 0.0 **** -0.24
14997 H 79.07981448729736 123.26768528916266 125.31940038196728 H 0.0 **** 0.06
14998 H 77.74129265807699 124.42832241697262 125.48935642237257 H 0.0 **** 0.06
14999 H 78.16464413844454 123.35227092734279 126.84357910933352 H 0.0 **** 0.06
15000 H 77.39995936285246 122.68363041639743 125.38237606730411 H 0.0 **** 0.06
15001 C 32.87540190973107 164.29310232836966 83.92740147564952 C 0.0 **** -0.24
15002 H 33.16566904322332 165.20809139668205 83.40979217233827 H 0.0 **** 0.06
15003 H 31.7884127068818 164.22428629774183 83.96047974766982 H 0.0 **** 0.06
15004 H 33.2704174094694 164.31094155806906 84.9437906295713 H 0.0 **** 0.06
15005 H 33.27879324758716 163.4313922627901 83.39647160151681 H 0.0 **** 0.06
15006 C 47.1054262152918 32.319668515066326 124.16595156683523 C 0.0 **** -0.24
15007 H 46.105025091170376 32.18355282469295 123.75568645538259 H 0.0 **** 0.06
15008 H 47.405188522384435 33.36285134268391 124.05445461451644 H 0.0 **** 0.06
15009 H 47.80799005773014 31.681431200039953 123.62972815301514 H 0.0 **** 0.06
15010 H 47.105021960123594 32.0529025294376 125.22274204060791 H 0.0 **** 0.06
15011 C 172.98104051746594 145.72086150942815 35.66691385564212 C 0.0 **** -0.24
15012 H 173.2294105462051 146.71962750031207 35.307617052466696 H 0.0 **** 0.06
15013 H 172.75877520716276 145.07494310500778 34.81778966090792 H 0.0 **** 0.06
15014 H 172.11049527264913 145.77628905531063 36.319412201882045 H 0.0 **** 0.06
15015 H 173.8264639178619 145.31445532280375 36.222100895909364 H 0.0 **** 0.06
15016 C 48.2146669408848 28.666917705217827 94.28413881916417 C 0.0 **** -0.24
15017 H 47.699571299153945 28.61464150996548 93.32552418583943 H 0.0 **** 0.06
15018 H 49.26505997237712 28.909161088816802 94.11950889892681 H 0.0 **** 0.06
15019 H 48.138671448334094 27.704535169211454 94.79086844949241 H 0.0 **** 0.06
15020 H 47.756154643117554 29.439448034843167 94.90182137303147 H 0.0 **** 0.06
15021 C 143.63812564007 26.110641069130807 43.35803407874482 C 0.0 **** -0.24
15022 H 143.42036374745135 25.166161115168478 42.85935307952883 H 0.0 **** 0.06
15023 H 143.29497702124655 26.063255317409173 44.39165150582528 H 0.0 **** 0.06
15024 H 143.12313138037123 26.92032152616872 42.8414251135527 H 0.0 **** 0.06
15025 H 144.7120713714389 26.29185202652883 43.33860522239834 H 0.0 **** 0.06
15026 C 120.2184297888336 111.93411624482304 32.68288638654295 C 0.0 **** -0.24
15027 H 119.33530444291763 112.41320222534743 32.260174179105945 H 0.0 **** 0.06
15028 H 119.95182013141549 111.44351248873427 33.61977946682384 H 0.0 **** 0.06
15029 H 120.98404853400343 112.6861338001748 32.8713349864193 H 0.0 **** 0.06
15030 H 120.60015599750894 111.1934634393371 31.980771107237075 H 0.0 **** 0.06
15031 C 161.89252324778477 74.40443317539939 19.755135116067237 C 0.0 **** -0.24
15032 H 162.30382030938972 73.44389221844597 19.446800671007054 H 0.0 **** 0.06
15033 H 162.69522872429775 75.14067990984256 19.81422040459063 H 0.0 **** 0.06
15034 H 161.42120080916595 74.30107186423538 20.73231112453678 H 0.0 **** 0.06
15035 H 161.1516657912357 74.73270054853083 19.02606644596551 H 0.0 **** 0.06
15036 C 109.44477214232482 83.84282030368969 67.1038415012369 C 0.0 **** -0.24
15037 H 109.10938164555397 84.8721216120104 66.98262946197764 H 0.0 **** 0.06
15038 H 109.87410814565497 83.71610578928873 68.09846325334718 H 0.0 **** 0.06
15039 H 110.1982814547436 83.61396417615147 66.35046779393812 H 0.0 **** 0.06
15040 H 108.59587994689169 83.16888665977672 66.98577853834468 H 0.0 **** 0.06
15041 C 157.3448418335586 52.94660681621568 94.32278964418475 C 0.0 **** -0.24
15042 H 158.26086739854992 52.38877741104129 94.12796950810122 H 0.0 **** 0.06
15043 H 157.18563959639945 53.018225121387445 95.39841077301827 H 0.0 **** 0.06
15044 H 156.5010860650916 52.430244183876525 93.86381336397949 H 0.0 **** 0.06
15045 H 157.43218426155877 53.94765728493381 93.89938009667446 H 0.0 **** 0.06
15046 C 142.44111295654488 27.07368997205745 11.28036988182592 C 0.0 **** -0.24
15047 H 142.4099311852694 28.077539051231952 11.704193066391952 H 0.0 **** 0.06
15048 H 141.45740605965045 26.815198478608067 10.886915587492837 H 0.0 **** 0.06
15049 H 142.7208807939724 26.360010856487435 12.05483900533389 H 0.0 **** 0.06
15050 H 143.1745763934485 27.041861985518608 10.475051488381865 H 0.0 **** 0.06
15051 C 42.49270752536697 14.187297384507431 80.222779867532 C 0.0 **** -0.24
15052 H 43.0528989812849 14.301160154738419 79.29453142370856 H 0.0 **** 0.06
15053 H 43.08161621470154 14.578958541520358 81.05256205157741 H 0.0 **** 0.06
15054 H 42.283245313879775 13.13104584934618 80.3933162347973 H 0.0 **** 0.06
15055 H 41.554399746247924 14.737553361469601 80.15061864314733 H 0.0 **** 0.06
15056 C 55.57082284843443 98.54128026917897 144.83681609822042 C 0.0 **** -0.24
15057 H 55.63820621271883 98.67576504694966 143.75682502771903 H 0.0 **** 0.06
15058 H 56.40681803375661 97.93094222883377 145.17967891471926 H 0.0 **** 0.06
15059 H 54.63189921460658 98.04465282728938 145.0829034275669 H 0.0 **** 0.06
15060 H 55.60671292009022 99.51462464732401 145.32679161174786 H 0.0 **** 0.06
15061 C 53.293112166043116 108.13421495156264 52.05628209339105 C 0.0 **** -0.24
15062 H 54.144418106484366 108.74716351661247 51.760805179728294 H 0.0 **** 0.06
15063 H 52.97745661635099 107.51968686540717 51.21296828621291 H 0.0 **** 0.06
15064 H 52.470588100345495 108.77931180783976 52.36430734815927 H 0.0 **** 0.06
15065 H 53.58025523650542 107.4900704975325 52.88777843066214 H 0.0 **** 0.06
15066 C 153.05763249179074 129.17993871106313 65.35804372533113 C 0.0 **** -0.24
15067 H 153.64302499983972 129.95602432164316 65.85139563512153 H 0.0 **** 0.06
15068 H 151.99815983527472 129.34902524718365 65.5488283710239 H 0.0 **** 0.06
15069 H 153.34613376796804 128.2039914098218 65.74973654816019 H 0.0 **** 0.06
15070 H 153.24492842150613 129.2110808480469 64.28464688892372 H 0.0 **** 0.06
15071 C 124.36091711665279 119.3922193092153 123.01914822828529 C 0.0 **** -0.24
15072 H 124.33001117299244 118.5268081597473 122.35767509062806 H 0.0 **** 0.06
15073 H 124.00420515966573 119.10645783889959 124.00890796456453 H 0.0 **** 0.06
15074 H 123.72315074396363 120.1803347243009 122.61657208020524 H 0.0 **** 0.06
15075 H 125.3859579260826 119.75752023481743 123.09251696433104 H 0.0 **** 0.06
15076 C 27.767588075868332 177.03392737471157 18.269758843888724 C 0.0 **** -0.24
15077 H 27.886495807351224 176.94148205526722 17.18976800997541 H 0.0 **** 0.06
15078 H 26.81046175519255 177.50553309227521 18.490581387969627 H 0.0 **** 0.06
15079 H 28.575716569797677 177.64439107916243 18.67252150656293 H 0.0 **** 0.06
15080 H 27.7996879298813 176.043288312703 18.724181808810897 H 0.0 **** 0.06
15081 C 128.0476420499606 185.13557936148752 183.92780520985824 C 0.0 **** -0.24
15082 H 129.07583544996731 184.87012121203728 183.6803992984252 H 0.0 **** 0.06
15083 H 127.89175007277059 186.19740053620416 183.7369915588009 H 0.0 **** 0.06
15084 H 127.860950600334 184.92429794291607 184.98033160303538 H 0.0 **** 0.06
15085 H 127.36434504263302 184.55106373157372 183.3129239163859 H 0.0 **** 0.06
15086 C 117.50689988532035 76.07472145279898 99.29865318561151 C 0.0 **** -0.24
15087 H 117.3689486395211 76.89507192431502 100.00271988084081 H 0.0 **** 0.06
15088 H 116.64101783986747 75.41239288448314 99.33829610608323 H 0.0 **** 0.06
15089 H 118.4049070254569 75.51662025102048 99.56251029378733 H 0.0 **** 0.06
15090 H 117.61153135605328 76.4752923879096 98.29051106471239 H 0.0 **** 0.06
15091 C 90.97804277251942 33.05220151840399 178.63582964752493 C 0.0 **** -0.24
15092 H 92.0134291724147 33.24988329238772 178.35644584614192 H 0.0 **** 0.06
15093 H 90.60538736231615 32.20014461526 178.06769116862353 H 0.0 **** 0.06
15094 H 90.36977314791267 33.93040879913087 178.416397583045 H 0.0 **** 0.06
15095 H 90.9248940133935 32.830537781942496 179.70117922939016 H 0.0 **** 0.06
15096 C 153.05364811226548 135.76370635154348 65.65282526071154 C 0.0 **** -0.24
15097 H 153.7558482131286 135.01883343448884 66.0265105636674 H 0.0 **** 0.06
15098 H 153.5923626272294 136.50760469872654 65.06550908144287 H 0.0 **** 0.06
15099 H 152.56008583469236 136.2519493663657 66.49299928691245 H 0.0 **** 0.06
15100 H 152.30700131792992 135.27674149978947 65.02564174868711 H 0.0 **** 0.06
15101 C 38.97753017495404 82.6417702001039 31.602078599507934 C 0.0 **** -0.24
15102 H 39.302817524723366 83.22924505393742 30.743805457495853 H 0.0 **** 0.06
15103 H 39.81255927694565 82.51217333806325 32.290877137209065 H 0.0 **** 0.06
15104 H 38.628642477515825 81.66598937524266 31.26480644263654 H 0.0 **** 0.06
15105 H 38.16536162882579 83.16191884836398 32.11067177468607 H 0.0 **** 0.06
15106 C 82.42707564743685 44.83418403793631 2.8476255867938036 C 0.0 **** -0.24
15107 H 83.37680820754017 45.13210969841654 2.4043449677103865 H 0.0 **** 0.06
15108 H 82.27353230742592 43.765369387986254 2.6913754486233756 H 0.0 **** 0.06
15109 H 81.6165349010235 45.39098715401616 2.3778571956421786 H 0.0 **** 0.06
15110 H 82.44256146955256 45.04641491447981 3.916402735846667 H 0.0 **** 0.06
15111 C 147.99704647801235 117.54710914687234 81.76835402886354 C 0.0 **** -0.24
15112 H 146.93544644702675 117.54555204634181 81.52031910559577 H 0.0 **** 0.06
15113 H 148.52538057121353 116.86142149460136 81.10675757646669 H 0.0 **** 0.06
15114 H 148.12893831915952 117.22923450297321 82.8026937318038 H 0.0 **** 0.06
15115 H 148.3970116535487 118.55417923085241 81.64410385959502 H 0.0 **** 0.06
15116 C 78.5404764630255 111.62796366067897 100.23561952311917 C 0.0 **** -0.24
15117 H 78.67935147988187 112.708945146529 100.24707011784272 H 0.0 **** 0.06
15118 H 77.49269911768906 111.3942512523468 100.4221684099744 H 0.0 **** 0.06
15119 H 79.15820709617985 111.1745444745286 101.01144121260097 H 0.0 **** 0.06
15120 H 78.833858599131 111.23409634988593 99.26213565266323 H 0.0 **** 0.06
15121 C 62.22303837851196 34.25279653582368 130.7902040099948 C 0.0 **** -0.24
15122 H 62.635935014069105 35.07588269237692 131.37292769760904 H 0.0 **** 0.06
15123 H 62.193197790503945 34.53175441440618 129.73675946319185 H 0.0 **** 0.06
15124 H 61.212520380944255 34.03384706709966 131.13670782796612 H 0.0 **** 0.06
15125 H 62.84878288895402 33.369123427485704 130.9157309420919 H 0.0 **** 0.06
15126 C 154.0213823788091 83.94176268322776 112.93499695953876 C 0.0 **** -0.24
15127 H 154.33769894567413 82.90645596577468 113.05835890516796 H 0.0 **** 0.06
15128 H 153.42008577209054 84.03167304486516 112.02893242406732 H 0.0 **** 0.06
15129 H 154.89888992253032 84.58240700314852 112.85322468246575 H 0.0 **** 0.06
15130 H 153.42728428248964 84.24563522403358 113.79687183128307 H 0.0 **** 0.06
15131 C 39.130837573614 9.977761746214355 58.071340403232355 C 0.0 **** -0.24
15132 H 39.04998257863794 9.03972663596133 58.62092294888855 H 0.0 **** 0.06
15133 H 38.293788732820076 10.064109717514498 57.37743935383526 H 0.0 **** 0.06
15134 H 40.067599809448296 9.992599328230199 57.51367765707633 H 0.0 **** 0.06
15135 H 39.11028699512977 10.812278270929 58.772020215465076 H 0.0 **** 0.06
15136 C 29.88088744051474 109.03617617585739 118.17890389364906 C 0.0 **** -0.24
15137 H 30.260331309058174 108.60682550617516 119.10629147327661 H 0.0 **** 0.06
15138 H 28.884400213362 108.64141722114796 117.97744677847074 H 0.0 **** 0.06
15139 H 30.548740617144404 108.77427062480989 117.35764327455855 H 0.0 **** 0.06
15140 H 29.829823656936924 110.1205399330962 118.27469054973345 H 0.0 **** 0.06
15141 C 154.47609763451783 114.67758557698583 116.65021932858043 C 0.0 **** -0.24
15142 H 155.25881561031156 114.23748107643986 116.03201145696325 H 0.0 **** 0.06
15143 H 154.5027532562592 114.22790035767859 117.64331100143603 H 0.0 **** 0.06
15144 H 153.50447939948617 114.49162176917689 116.1929253073295 H 0.0 **** 0.06
15145 H 154.63935336530062 115.75162582463956 116.73283560887258 H 0.0 **** 0.06
15146 C 71.73745626733378 70.10596920710074 63.44780031226969 C 0.0 **** -0.24
15147 H 71.60172681868013 69.09639987512902 63.05824842086827 H 0.0 **** 0.06
15148 H 72.50895435405289 70.09642729558537 64.21837025813124 H 0.0 **** 0.06
15149 H 70.79956181451811 70.45876905504977 63.87611749931858 H 0.0 **** 0.06
15150 H 72.03918047843128 70.76917147523072 62.63804999436212 H 0.0 **** 0.06
15151 C 106.43905519822162 108.59834911236307 87.47064670482031 C 0.0 **** -0.24
15152 H 105.48931349575209 108.53728577703176 86.94069831737453 H 0.0 **** 0.06
15153 H 106.93853899319917 109.5329580770589 87.21312696896494 H 0.0 **** 0.06
15154 H 107.07007865627249 107.75692067403268 87.18332988033792 H 0.0 **** 0.06
15155 H 106.25828964766258 108.56623192132874 88.54543165260391 H 0.0 **** 0.06
15156 C 40.876503102683486 119.55956722090706 158.0366208462218 C 0.0 **** -0.24
15157 H 41.41902973494639 119.41254964839108 158.96999806158598 H 0.0 **** 0.06
15158 H 39.80359016443575 119.52130488074191 158.22924800750138 H 0.0 **** 0.06
15159 H 41.147311069429676 118.77457845831468 157.3313052969172 H 0.0 **** 0.06
15160 H 41.135568718964436 120.53176622699029 157.61582696178357 H 0.0 **** 0.06
15161 C 65.88361334630554 178.40936288148197 159.8868327384348 C 0.0 **** -0.24
15162 H 64.91240676079502 178.18818748362276 160.32822773998075 H 0.0 **** 0.06
15163 H 65.88972553825403 179.4358452099252 159.51936838733593 H 0.0 **** 0.06
15164 H 66.07118234801095 177.72530859176987 159.0588520771596 H 0.0 **** 0.06
15165 H 66.66199868697595 178.2882949385596 160.64135856374355 H 0.0 **** 0.06
15166 C 79.67601535454337 96.80685317593924 49.14477907608432 C 0.0 **** -0.24
15167 H 78.67394590567751 97.2130582869853 49.28003281634267 H 0.0 **** 0.06
15168 H 80.18701400072142 97.35644469088072 48.35461586550559 H 0.0 **** 0.06
15169 H 79.60742316885495 95.75481493162454 48.86992824136357 H 0.0 **** 0.06
15170 H 80.23508751710573 96.90340854263258 50.07578538925168 H 0.0 **** 0.06
15171 C 129.453300447627 47.00965466889551 52.68550081539743 C 0.0 **** -0.24
15172 H 130.24127053525638 46.499885563176434 52.130386427969796 H 0.0 **** 0.06
15173 H 129.8749933035072 47.87061669409303 53.20507170828077 H 0.0 **** 0.06
15174 H 129.01783687407266 46.323056588863295 53.41128997812973 H 0.0 **** 0.06
15175 H 128.6807139130625 47.34488995711956 51.99371565736891 H 0.0 **** 0.06
15176 C 93.64542784358525 88.88644652871243 26.393402731945173 C 0.0 **** -0.24
15177 H 92.91585357787955 89.08322053164774 25.60765483781205 H 0.0 **** 0.06
15178 H 94.14309088934425 89.81687948043297 26.66710582480522 H 0.0 **** 0.06
15179 H 94.38434467695532 88.1719685111763 26.031797397882798 H 0.0 **** 0.06
15180 H 93.13747788814214 88.47409587819779 27.265061575998715 H 0.0 **** 0.06
15181 C 116.52622960533596 132.6744432396717 122.15493800476462 C 0.0 **** -0.24
15182 H 115.96190231449403 131.75029410134096 122.02733134579059 H 0.0 **** 0.06
15183 H 117.36570045430356 132.49662209254484 122.82610762894252 H 0.0 **** 0.06
15184 H 115.87698809123508 133.43981996559728 122.57853835139902 H 0.0 **** 0.06
15185 H 116.89826825433978 133.00917043629852 121.1866450174248 H 0.0 **** 0.06
15186 C 164.3086501636064 82.80784259043651 184.3440828282849 C 0.0 **** -0.24
15187 H 164.7810064832043 83.58843650676971 184.9403109760796 H 0.0 **** 0.06
15188 H 163.23626514324897 82.80151422065211 184.5372839285308 H 0.0 **** 0.06
15189 H 164.73227173393224 81.84001322755506 184.61181860481065 H 0.0 **** 0.06
15190 H 164.48617107851922 83.00152164803632 183.286053944347 H 0.0 **** 0.06
15191 C 161.27600612984855 72.69595280712406 40.65183924251144 C 0.0 **** -0.24
15192 H 161.305348604943 73.7272615072385 40.300748459256056 H 0.0 **** 0.06
15193 H 160.4572993410655 72.16830935128314 40.16171990950659 H 0.0 **** 0.06
15194 H 161.12234735383186 72.68389025038454 41.73138862314437 H 0.0 **** 0.06
15195 H 162.21931802421665 72.20412541228478 40.41443063554527 H 0.0 **** 0.06
15196 C 180.17429955848303 180.68642611276925 168.9400642139613 C 0.0 **** -0.24
15197 H 180.65207091943768 181.4185977398405 169.59118141012345 H 0.0 **** 0.06
15198 H 179.83019851778897 179.8402310505462 169.5351841736918 H 0.0 **** 0.06
15199 H 180.89341772842062 180.3398986908761 168.19652792358016 H 0.0 **** 0.06
15200 H 179.324753153676 181.14689184916415 168.43614600159216 H 0.0 **** 0.06
15201 C 117.25507082112064 159.23047359142944 18.712264549273414 C 0.0 **** -0.24
15202 H 116.29840536127385 159.44645219461373 19.188565734824806 H 0.0 **** 0.06
15203 H 117.12679081935799 159.21893252290562 17.630263907572953 H 0.0 **** 0.06
15204 H 117.61441654676928 158.25749525847056 19.046568547539096 H 0.0 **** 0.06
15205 H 117.97835025818473 159.99864508479249 18.985234816546836 H 0.0 **** 0.06
15206 C 54.65279504198077 139.27240735201354 42.67617658498905 C 0.0 **** -0.24
15207 H 53.64450795023714 138.85587599816466 42.67574587848755 H 0.0 **** 0.06
15208 H 55.0639506174532 139.22584543261706 41.667126300956724 H 0.0 **** 0.06
15209 H 55.28290753299996 138.6956818230687 43.35354375683703 H 0.0 **** 0.06
15210 H 54.61644348554893 140.30996635109807 43.00756041107812 H 0.0 **** 0.06
15211 C 37.776888881878705 152.06414816260934 75.18045975675386 C 0.0 **** -0.24
15212 H 36.97144717367122 151.35103065475164 75.35740734725522 H 0.0 **** 0.06
15213 H 38.448980872076504 152.07370569026332 76.03919860035546 H 0.0 **** 0.06
15214 H 37.35605009929047 153.05882579563493 75.03729390519874 H 0.0 **** 0.06
15215 H 38.331057925761 151.7716607376306 74.28899908921164 H 0.0 **** 0.06
15216 C 179.91694690607812 68.30882858324433 36.10913488165714 C 0.0 **** -0.24
15217 H 179.48950677644387 68.82411119553566 36.96917332438204 H 0.0 **** 0.06
15218 H 179.3404061853961 68.55422638962033 35.21577988978076 H 0.0 **** 0.06
15219 H 179.8838617029299 67.23203607801018 36.277294483880155 H 0.0 **** 0.06
15220 H 180.95057534105655 68.62454802060704 35.972867415809404 H 0.0 **** 0.06
15221 C 148.5231253198125 144.64733944924768 24.293641866834065 C 0.0 **** -0.24
15222 H 148.60448240115653 145.56783878474326 24.8717182995789 H 0.0 **** 0.06
15223 H 147.57820432636555 144.15567453549176 24.523646817590873 H 0.0 **** 0.06
15224 H 149.35014576173876 143.9846445053759 24.54730295497633 H 0.0 **** 0.06
15225 H 148.5602836607065 144.88346279705473 23.229553798074164 H 0.0 **** 0.06
15226 C 81.15820901733602 60.939431593112644 138.00928790282262 C 0.0 **** -0.24
15227 H 81.39422532648284 60.17875416943147 138.75403587624896 H 0.0 **** 0.06
15228 H 81.84302971934878 60.848033043251874 137.16627054110398 H 0.0 **** 0.06
15229 H 81.260913450621 61.9289913318392 138.45644193240105 H 0.0 **** 0.06
15230 H 80.13376412377966 60.80202240365938 137.6637466901277 H 0.0 **** 0.06
15231 C 145.24321019124756 129.87057516902473 41.16247376225773 C 0.0 **** -0.24
15232 H 145.57547855172416 130.48940264926972 40.328429596026126 H 0.0 **** 0.06
15233 H 145.8801806969392 130.0568960129122 42.02822691849414 H 0.0 **** 0.06
15234 H 145.30752595813811 128.81941504176638 40.88311698714203 H 0.0 **** 0.06
15235 H 144.21141673437444 130.11955912857132 41.41037618678865 H 0.0 **** 0.06
15236 C 77.72927065539503 38.7782170208053 54.15117158635644 C 0.0 **** -0.24
15237 H 78.37105564217144 39.58205441700076 54.51127966043251 H 0.0 **** 0.06
15238 H 76.69862517252247 39.129780975764106 54.102457729395866 H 0.0 **** 0.06
15239 H 77.7937167271445 37.92975041963899 54.83283609982436 H 0.0 **** 0.06
15240 H 78.05729763257688 38.470622938673046 53.15739515865894 H 0.0 **** 0.06
15241 C 99.17928314408677 31.70826423009703 148.95961519428653 C 0.0 **** -0.24
15242 H 98.1043602744213 31.57824169864176 149.0859731559408 H 0.0 **** 0.06
15243 H 99.70250310853844 31.233454153016055 149.78876209790747 H 0.0 **** 0.06
15244 H 99.41654489418987 32.77179319988568 148.94180099345044 H 0.0 **** 0.06
15245 H 99.49217903302132 31.250318578034893 148.0209004756418 H 0.0 **** 0.06
15246 C 127.14756994677923 166.7698087961117 172.59579894152586 C 0.0 **** -0.24
15247 H 126.7925082366858 166.23475330112907 173.4767150380235 H 0.0 **** 0.06
15248 H 127.8387081534136 167.5556346714561 172.90209301368552 H 0.0 **** 0.06
15249 H 126.29986385807054 167.21496111370146 172.07443421647548 H 0.0 **** 0.06
15250 H 127.65981194081182 166.07457765096729 171.93033656891225 H 0.0 **** 0.06
15251 C 86.19614306248083 175.4609902007904 50.21518778055622 C 0.0 **** -0.24
15252 H 85.48830281674937 174.79383379687994 49.7228952943359 H 0.0 **** 0.06
15253 H 87.20370252829228 175.24769541024256 49.85853723355706 H 0.0 **** 0.06
15254 H 86.15130180520124 175.3058945155392 51.29297855028233 H 0.0 **** 0.06
15255 H 85.93940595442534 176.49529682328222 49.985337303184 H 0.0 **** 0.06
15256 C 123.00213334776066 37.38165642876234 119.68523234786511 C 0.0 **** -0.24
15257 H 123.49449226546614 38.353043396556245 119.72887193470092 H 0.0 **** 0.06
15258 H 122.30384505807416 37.2906814738472 120.51813595728783 H 0.0 **** 0.06
15259 H 123.75079806944842 36.5918525652763 119.75009654977987 H 0.0 **** 0.06
15260 H 122.4592925456219 37.291247383241284 118.74479925054248 H 0.0 **** 0.06
15261 C 73.35542993756604 36.86389265106122 109.13806056538897 C 0.0 **** -0.24
15262 H 72.76153651857801 36.12941180844912 109.6824013329616 H 0.0 **** 0.06
15263 H 73.6105836990853 37.68918375122284 109.80394836269454 H 0.0 **** 0.06
15264 H 72.7788836986404 37.24248421781435 108.29326339698457 H 0.0 **** 0.06
15265 H 74.26871956826484 36.39429070718812 108.77361658929448 H 0.0 **** 0.06
15266 C 13.177482158136797 128.05371205834848 38.37257973001179 C 0.0 **** -0.24
15267 H 12.567626099290607 127.9740138354041 37.473414499836196 H 0.0 **** 0.06
15268 H 12.841091538216858 128.90580062899033 38.96444611431046 H 0.0 **** 0.06
15269 H 14.221113023068312 128.1946006885874 38.09245947094685 H 0.0 **** 0.06
15270 H 13.078574541418021 127.14163042170367 38.9604944477463 H 0.0 **** 0.06
15271 C 35.730048727497774 63.64616381404619 181.45698979125405 C 0.0 **** -0.24
15272 H 35.39234415860571 64.67022978852526 181.61848866264125 H 0.0 **** 0.06
15273 H 36.485301248213034 63.39166497188472 182.20165170913506 H 0.0 **** 0.06
15274 H 36.15987708217904 63.55876839223424 180.45903789169552 H 0.0 **** 0.06
15275 H 34.88379984746899 62.9655644192228 181.55028319353576 H 0.0 **** 0.06
15276 C 112.32898158154546 70.20846440687416 182.53322826660906 C 0.0 **** -0.24
15277 H 112.50228673243055 71.14306858389318 183.06697326906288 H 0.0 **** 0.06
15278 H 112.40383088916082 70.38531465730352 181.4590420635481 H 0.0 **** 0.06
15279 H 111.3345624894227 69.83272854970733 182.77162199102236 H 0.0 **** 0.06
15280 H 113.0759395976724 69.47437409724802 182.833582185532 H 0.0 **** 0.06
15281 C 108.66458755390734 125.05288061880049 72.42373775795306 C 0.0 **** -0.24
15282 H 108.27852004349974 125.58302967743691 73.2936890135278 H 0.0 **** 0.06
15283 H 109.36729178536531 124.28472234203537 72.74779023385685 H 0.0 **** 0.06
15284 H 109.17304362053231 125.7571498148414 71.76522147673302 H 0.0 **** 0.06
15285 H 107.83738607968805 124.58664840442111 71.88750680663861 H 0.0 **** 0.06
15286 C 131.13240198988683 179.5760682077323 179.0099534375735 C 0.0 **** -0.24
15287 H 131.1993896677074 178.51765317237843 179.26250568428753 H 0.0 **** 0.06
15288 H 130.12122112971105 179.93286385841236 179.20427657382385 H 0.0 **** 0.06
15289 H 131.3711530539012 179.71367774908373 177.95470183667717 H 0.0 **** 0.06
15290 H 131.8406411360819 180.14009081782748 179.6187499767069 H 0.0 **** 0.06
15291 C 86.87832314126315 0.7115895433105024 174.815027888182 C 0.0 **** -0.24
15292 H 86.26698876929599 0.2952697244789064 175.61519002036516 H 0.0 **** 0.06
15293 H 87.93284542345434 0.6086475271338472 175.07203970680325 H 0.0 **** 0.06
15294 H 86.63654100943127 1.7665465911462306 174.684676830848 H 0.0 **** 0.06
15295 H 86.67545556393229 0.1753173476432579 173.88696792821162 H 0.0 **** 0.06
15296 C 81.5664350113666 115.14941859170504 91.34453854453578 C 0.0 **** -0.24
15297 H 80.78059706759059 114.86419715009647 90.64481157729624 H 0.0 **** 0.06
15298 H 81.64910037351795 116.23592780875693 91.37356481315165 H 0.0 **** 0.06
15299 H 82.5142800573699 114.7203994312428 91.0198499449307 H 0.0 **** 0.06
15300 H 81.3199993952913 114.77575211166457 92.33770579044268 H 0.0 **** 0.06
15301 C 110.9521681514218 68.40255678861206 13.169137426222967 C 0.0 **** -0.24
15302 H 110.33002241946701 67.51462769321967 13.058552782815731 H 0.0 **** 0.06
15303 H 110.5054521359611 69.22908217526765 12.614524043608547 H 0.0 **** 0.06
15304 H 111.94859944156838 68.19880479884563 12.779034701226394 H 0.0 **** 0.06
15305 H 111.02156425958276 68.66886576240694 14.223757770408042 H 0.0 **** 0.06
15306 C 113.21128704967289 107.74242272887876 64.94137622565663 C 0.0 **** -0.24
15307 H 112.82625350174256 108.76162209662006 64.97653561630511 H 0.0 **** 0.06
15308 H 112.45089260974545 107.08109035801407 64.52599308417312 H 0.0 **** 0.06
15309 H 113.46730012580333 107.41562195700054 65.94861695818021 H 0.0 **** 0.06
15310 H 114.10137779701479 107.71244334477096 64.31252562822957 H 0.0 **** 0.06
15311 C 153.13600938337268 102.85286894608906 120.44517710037401 C 0.0 **** -0.24
15312 H 153.3709638411829 102.27663986392348 119.55021798781625 H 0.0 **** 0.06
15313 H 153.0211506693441 103.90436417648907 120.18034386800865 H 0.0 **** 0.06
15314 H 153.94354847144726 102.74609242195602 121.16897938087142 H 0.0 **** 0.06
15315 H 152.2074561896188 102.48421581058817 120.88080674814914 H 0.0 **** 0.06
15316 C 84.01396530830445 133.44516370188836 1.74148629678416 C 0.0 **** -0.24
15317 H 83.09960463391371 133.39409262616607 2.3331075268316397 H 0.0 **** 0.06
15318 H 84.51873021553189 132.47902258450864 1.7686177172744522 H 0.0 **** 0.06
15319 H 84.67080828344065 134.21103973481297 2.1548161770523677 H 0.0 **** 0.06
15320 H 83.76682488970378 133.69741386873972 0.7104776548268887 H 0.0 **** 0.06
15321 C 115.21523145662637 32.95126941877781 160.48222475789845 C 0.0 **** -0.24
15322 H 114.92522825773601 32.565544416442506 159.50451429576637 H 0.0 **** 0.06
15323 H 114.8060018886787 32.30878246188851 161.26180928307897 H 0.0 **** 0.06
15324 H 114.825954029514 33.96210028683552 160.60287880255876 H 0.0 **** 0.06
15325 H 116.30227965875271 32.968985865662816 160.558038265426 H 0.0 **** 0.06
15326 C 175.4885796070031 56.72636734700586 107.87058810340393 C 0.0 **** -0.24
15327 H 176.23342928328498 55.944058398119864 107.7259885807543 H 0.0 **** 0.06
15328 H 174.7071862287076 56.36477239147925 108.5395401626303 H 0.0 **** 0.06
15329 H 175.0495606287459 56.99113600497975 106.90806574675373 H 0.0 **** 0.06
15330 H 175.9642663430518 57.60457689308588 108.30649345062461 H 0.0 **** 0.06
15331 C 39.59351560094481 116.01991427103957 126.99475707954429 C 0.0 **** -0.24
15332 H 40.14400308267987 115.85527754321407 126.068489491962 H 0.0 **** 0.06
15333 H 38.60947191570371 115.55757441071341 126.91996247922611 H 0.0 **** 0.06
15334 H 39.48087009647688 117.09077010948783 127.16365386158463 H 0.0 **** 0.06
15335 H 40.14113658643791 115.57699299280148 127.82718328226736 H 0.0 **** 0.06
15336 C 61.74710817327389 44.081438670730876 143.31664997761192 C 0.0 **** -0.24
15337 H 61.55798750081607 43.37636740508812 144.12592201945037 H 0.0 **** 0.06
15338 H 60.93544665774289 44.026919682914425 142.59052144194203 H 0.0 **** 0.06
15339 H 62.68910266126497 43.82997964810396 142.82920243177875 H 0.0 **** 0.06
15340 H 61.80589587327174 45.09248794681713 143.72095401727663 H 0.0 **** 0.06
15341 C 41.61565372182183 71.1721985650388 61.48805115056834 C 0.0 **** -0.24
15342 H 41.4782395837569 72.1002903777242 62.04366461863866 H 0.0 **** 0.06
15343 H 40.899868035930794 70.42882082686697 61.83931139518745 H 0.0 **** 0.06
15344 H 42.62924451856766 70.80243407744126 61.643164931159674 H 0.0 **** 0.06
15345 H 41.45431317058866 71.35751872725132 60.42590377951406 H 0.0 **** 0.06
15346 C 150.25166318956565 172.91568199834202 62.5151764702117 C 0.0 **** -0.24
15347 H 151.14811490601386 173.4839965773474 62.26751497004011 H 0.0 **** 0.06
15348 H 150.1776269794639 172.80720877967957 63.597201683309024 H 0.0 **** 0.06
15349 H 150.30807614103156 171.92964258440688 62.05358549685599 H 0.0 **** 0.06
15350 H 149.37300675356283 173.44133842946957 62.14024105239989 H 0.0 **** 0.06
15351 C 178.14745874520963 44.573717937205686 45.525524067552965 C 0.0 **** -0.24
15352 H 178.8890417149509 44.20932218753194 44.81466487013432 H 0.0 **** 0.06
15353 H 177.3169626985624 45.027252349349965 44.98339285934617 H 0.0 **** 0.06
15354 H 178.60461641356326 45.31627215099934 46.17866680939392 H 0.0 **** 0.06
15355 H 177.77899137374982 43.74033864346097 46.12392035656785 H 0.0 **** 0.06
15356 C 164.89682508612276 119.3021803400889 43.9992625300369 C 0.0 **** -0.24
15357 H 164.37112426439577 119.80673898784333 44.81060315377317 H 0.0 **** 0.06
15358 H 164.5389242937086 118.27564683878701 43.91906052558204 H 0.0 **** 0.06
15359 H 165.96700802557822 119.29940770186376 44.20647294264333 H 0.0 **** 0.06
15360 H 164.70828281432443 119.82725966105234 43.06337212081763 H 0.0 **** 0.06
15361 C 114.03340812376088 44.462455095696086 1.7401060952171576 C 0.0 **** -0.24
15362 H 114.75169318993777 45.212672007181155 1.4081836145866973 H 0.0 **** 0.06
15363 H 114.53048301771712 43.753384245106744 2.403285920510072 H 0.0 **** 0.06
15364 H 113.63554617824842 43.933037395770555 0.8741429645822052 H 0.0 **** 0.06
15365 H 113.2186176362308 44.95101345616605 2.2735519961531736 H 0.0 **** 0.06
15366 C 99.94399971653398 14.353269280703046 98.91610945553602 C 0.0 **** -0.24
15367 H 99.44046873905977 14.586847213991575 99.85393793410792 H 0.0 **** 0.06
15368 H 100.92015669234685 14.839390649381926 98.89708387537671 H 0.0 **** 0.06
15369 H 99.34174189292678 14.71209960876979 98.08143007140045 H 0.0 **** 0.06
15370 H 100.07310470964627 13.27376664950296 98.83286671707613 H 0.0 **** 0.06
15371 C 91.3225402250243 170.88650777441813 95.10882967998191 C 0.0 **** -0.24
15372 H 90.49634302484795 170.18585455443372 94.9920452993012 H 0.0 **** 0.06
15373 H 92.16659126915208 170.37890340449326 95.57501203128567 H 0.0 **** 0.06
15374 H 91.00606336652233 171.71947602487745 95.73761397221182 H 0.0 **** 0.06
15375 H 91.61971307130703 171.2634570927857 94.13027111198278 H 0.0 **** 0.06
15376 C 30.21669052386227 120.27580589035911 15.911204532653251 C 0.0 **** -0.24
15377 H 29.4829041630192 120.71240427718614 15.232985680292309 H 0.0 **** 0.06
15378 H 30.128259887843242 120.74349101100633 16.892530191917743 H 0.0 **** 0.06
15379 H 31.218571946947307 120.44338127701594 15.51749088500015 H 0.0 **** 0.06
15380 H 30.034650671594875 119.20454416106365 16.00178148100688 H 0.0 **** 0.06
15381 C 66.24874830175528 140.55716589881507 86.12811542025888 C 0.0 **** -0.24
15382 H 66.69562676814839 139.56383641862294 86.11107111077344 H 0.0 **** 0.06
15383 H 65.39122114995189 140.58206252363283 85.45509482201452 H 0.0 **** 0.06
15384 H 66.98555291567206 141.29322035294155 85.8045073297208 H 0.0 **** 0.06
15385 H 65.92181747274168 140.79159244694404 87.14133592860166 H 0.0 **** 0.06
15386 C 22.674856085832104 16.31983554222103 114.21233446935038 C 0.0 **** -0.24
15387 H 22.733664680575217 15.97222983032733 113.1806726089877 H 0.0 **** 0.06
15388 H 21.659802489307637 16.65811426653454 114.42411053382209 H 0.0 **** 0.06
15389 H 23.370750375369852 17.14626710865158 114.35763888660567 H 0.0 **** 0.06
15390 H 22.933584357281816 15.503134836463282 114.88543102612094 H 0.0 **** 0.06
15391 C 135.18644011087235 97.04620037680571 137.8413605046124 C 0.0 **** -0.24
15392 H 134.4279846100178 97.32178567138847 137.10839163055266 H 0.0 **** 0.06
15393 H 136.1550969275844 97.42904759965388 137.52193866931054 H 0.0 **** 0.06
15394 H 135.23272993102762 95.96026496766937 137.92569859252046 H 0.0 **** 0.06
15395 H 134.92696307430316 97.47398706255807 138.80947701066424 H 0.0 **** 0.06
15396 C 102.98060201111946 129.97656950099594 138.9572767020486 C 0.0 **** -0.24
15397 H 102.81295983054258 129.48547606366998 139.91668263215394 H 0.0 **** 0.06
15398 H 103.78371565564834 129.46697732538024 138.4244590378148 H 0.0 **** 0.06
15399 H 103.2574423701588 131.0169137131553 139.12449114453574 H 0.0 **** 0.06
15400 H 102.06700253433092 129.9342044401771 138.36334270874966 H 0.0 **** 0.06
15401 C 98.67611119439151 17.557563069988134 177.3530665087075 C 0.0 **** -0.24
15402 H 97.77944470057339 18.13203844715059 177.58433818600406 H 0.0 **** 0.06
15403 H 99.27022629970999 18.093510198537672 176.61275489560882 H 0.0 **** 0.06
15404 H 98.39113652008767 16.583343180921418 176.95479596429655 H 0.0 **** 0.06
15405 H 99.26346706144427 17.42039757562401 178.26016740690932 H 0.0 **** 0.06
15406 C 99.30057150780289 4.825880548774073 11.500790560704758 C 0.0 **** -0.24
15407 H 99.99871324403847 5.64033967331941 11.307788459276452 H 0.0 **** 0.06
15408 H 99.15787581695446 4.7175212168280325 12.575813607069449 H 0.0 **** 0.06
15409 H 99.70260054630211 3.899362698024291 11.091370632735732 H 0.0 **** 0.06
15410 H 98.3439077332423 5.048201366313769 11.027340186651315 H 0.0 **** 0.06
15411 C 146.75372483239718 144.79200422039136 32.07645245016744 C 0.0 **** -0.24
15412 H 147.84085783321163 144.84087197837619 32.14353568142698 H 0.0 **** 0.06
15413 H 146.35904949503177 144.2713379579915 32.94828864824575 H 0.0 **** 0.06
15414 H 146.47076036967928 144.25343943447737 31.171646689495645 H 0.0 **** 0.06
15415 H 146.34670654593364 145.80250785247756 32.04064901051299 H 0.0 **** 0.06
15416 C 117.21195398963704 24.595628222354208 98.4401968931903 C 0.0 **** -0.24
15417 H 117.13167356494 23.524366493283026 98.25591254192877 H 0.0 **** 0.06
15418 H 116.92838935340478 25.141026590095862 97.54021851899121 H 0.0 **** 0.06
15419 H 118.24002038662434 24.84241702562116 98.707326374743 H 0.0 **** 0.06
15420 H 116.54751273745023 24.873023051260276 99.25909940111099 H 0.0 **** 0.06
15421 C 64.98945034609172 167.31633144815703 80.59097679841904 C 0.0 **** -0.24
15422 H 64.60166374278958 168.03699900188235 81.31158155347065 H 0.0 **** 0.06
15423 H 66.06957380924996 167.43814733223547 80.50155312956049 H 0.0 **** 0.06
15424 H 64.52362893837639 167.48642379401997 79.62117871021994 H 0.0 **** 0.06
15425 H 64.76366464448694 166.3056121942352 80.93060418898253 H 0.0 **** 0.06
15426 C 147.4582117362885 32.45645364469132 168.0423293079483 C 0.0 **** -0.24
15427 H 146.54142567026005 31.88483065237324 168.18449052322126 H 0.0 **** 0.06
15428 H 147.8181813389035 32.31862070928909 167.02214140299736 H 0.0 **** 0.06
15429 H 148.21513512434296 32.1097241335454 168.7454850382775 H 0.0 **** 0.06
15430 H 147.25783935246403 33.51355511168896 168.21689952056005 H 0.0 **** 0.06
15431 C 130.573405291273 164.83761113792303 112.43670900934477 C 0.0 **** -0.24
15432 H 130.3888752447591 165.11153778598722 113.47613733835338 H 0.0 **** 0.06
15433 H 130.9338604438596 165.70926623201095 111.89017826851911 H 0.0 **** 0.06
15434 H 129.64797186818652 164.4810651054496 111.9855036840588 H 0.0 **** 0.06
15435 H 131.32413349267358 164.04809859870895 112.39752367951358 H 0.0 **** 0.06
15436 C 29.62085650257751 12.707148078924519 96.77625983904606 C 0.0 **** -0.24
15437 H 29.043326301279137 13.476960276309967 97.28937137031382 H 0.0 **** 0.06
15438 H 29.736084140357832 12.978530400406129 95.72713945635256 H 0.0 **** 0.06
15439 H 29.09824218637067 11.753026626302699 96.85013076591783 H 0.0 **** 0.06
15440 H 30.603187334640083 12.620775885466344 97.24081053298802 H 0.0 **** 0.06
15441 C 141.1586546713247 94.982506666209 160.55774597950816 C 0.0 **** -0.24
15442 H 141.39698656210322 94.92043542230401 161.6199420319589 H 0.0 **** 0.06
15443 H 140.69002742796238 94.05248610092814 160.23545942072283 H 0.0 **** 0.06
15444 H 142.07549702828015 95.14390006689025 159.99067400100242 H 0.0 **** 0.06
15445 H 140.47494529584452 95.81368023263575 160.38708157468145 H 0.0 **** 0.06
15446 C 152.19176721298209 176.14398822200192 39.74420630031196 C 0.0 **** -0.24
15447 H 151.3892394268483 176.72631487746398 40.19458406394696 H 0.0 **** 0.06
15448 H 152.82028900704967 176.79730146364983 39.13911579205654 H 0.0 **** 0.06
15449 H 151.76477664324761 175.36373297914804 39.113204555662634 H 0.0 **** 0.06
15450 H 152.79337467883758 175.68623599111308 40.52977407416125 H 0.0 **** 0.06
15451 C 41.63374451169 154.057186647354 2.9498095016626564 C 0.0 **** -0.24
15452 H 41.52980581781409 154.51985489121893 1.9685520440630455 H 0.0 **** 0.06
15453 H 40.653735192442014 153.73975615969252 3.3064423513405927 H 0.0 **** 0.06
15454 H 42.058461425258486 154.77763429508104 3.649009829597361 H 0.0 **** 0.06
15455 H 42.29158723868099 153.1912506925819 2.8751353167915568 H 0.0 **** 0.06
15456 C 179.814653258608 111.25255500244351 135.0784645707718 C 0.0 **** -0.24
15457 H 180.42801379472337 110.83711589428059 135.8775468846602 H 0.0 **** 0.06
15458 H 179.17769344321093 112.04037826262065 135.4826317488778 H 0.0 **** 0.06
15459 H 179.19258088765713 110.46486924465314 134.65186697609784 H 0.0 **** 0.06
15460 H 180.459043272497 111.66692976877648 134.303393338028 H 0.0 **** 0.06
15461 C 59.49668968649297 47.27167196436699 131.71249154336016 C 0.0 **** -0.24
15462 H 60.53558062212525 47.00944574979849 131.91208461524218 H 0.0 **** 0.06
15463 H 58.96274043356617 47.38329980576333 132.65577080459292 H 0.0 **** 0.06
15464 H 59.03057659314962 46.483981283943876 131.1208063803071 H 0.0 **** 0.06
15465 H 59.45870114680298 48.21127948179486 131.16005694853914 H 0.0 **** 0.06
15466 C 156.9108936382537 181.37332343465584 144.15536960853308 C 0.0 **** -0.24
15467 H 157.75191288905376 182.06469186482798 144.11484001188563 H 0.0 **** 0.06
15468 H 157.10543899360707 180.60695225442447 144.9052747144725 H 0.0 **** 0.06
15469 H 156.7799437896237 180.9033462089276 143.1802060688521 H 0.0 **** 0.06
15470 H 156.00496066218503 181.9195344058472 144.41983586974504 H 0.0 **** 0.06
15471 C 53.90561151802012 120.32026020362851 86.3498391233275 C 0.0 **** -0.24
15472 H 54.34275725450175 119.42161575625106 86.7845126940352 H 0.0 **** 0.06
15473 H 53.90990056766617 121.12047099103474 87.08986862304762 H 0.0 **** 0.06
15474 H 52.880344148100335 120.11292297739082 86.04314471350848 H 0.0 **** 0.06
15475 H 54.49022947221442 120.62473976062925 85.48098445069006 H 0.0 **** 0.06
15476 C 154.44042666417081 126.80214258057372 72.1411379167224 C 0.0 **** -0.24
15477 H 153.57705476839777 126.38092070565442 72.65649456317239 H 0.0 **** 0.06
15478 H 154.38666879069217 126.55486891955901 71.08078505198459 H 0.0 **** 0.06
15479 H 155.35409019125547 126.3880056219988 72.56581292880774 H 0.0 **** 0.06
15480 H 154.4423615266932 127.88545657126748 72.26189560142241 H 0.0 **** 0.06
15481 C 166.8472589329628 30.26747343035673 103.40662000256565 C 0.0 **** -0.24
15482 H 166.85928863439565 29.459310798610602 104.13760344831068 H 0.0 **** 0.06
15483 H 166.58785279696002 31.203067920963036 103.9029845775742 H 0.0 **** 0.06
15484 H 166.10798550154877 30.049051218394723 102.63530948135353 H 0.0 **** 0.06
15485 H 167.83242661135327 30.35895580761823 102.94983343272757 H 0.0 **** 0.06
15486 C 99.1938493860067 163.94091735566008 148.57503874644055 C 0.0 **** -0.24
15487 H 99.46474113274569 163.28929499689215 147.7442094435695 H 0.0 **** 0.06
15488 H 99.3463599562083 164.98031827034433 148.28543623874845 H 0.0 **** 0.06
15489 H 99.81776029682787 163.70723986909567 149.43806388234094 H 0.0 **** 0.06
15490 H 98.14619993075108 163.78446442092675 148.8318489074066 H 0.0 **** 0.06
15491 C 52.32878720670794 82.7958100524329 141.10871101725843 C 0.0 **** -0.24
15492 H 51.286846009545215 82.48287328987266 141.04493424988982 H 0.0 **** 0.06
15493 H 52.965413792144105 81.91776602615164 141.21770937813415 H 0.0 **** 0.06
15494 H 52.46064249656554 83.44899977731905 141.97141185407264 H 0.0 **** 0.06
15495 H 52.60307578214666 83.33311844209106 140.20050682683552 H 0.0 **** 0.06
15496 C 51.136638809505826 174.4051362904305 179.44695036275456 C 0.0 **** -0.24
15497 H 51.32777873570956 173.33637990610296 179.53473215307704 H 0.0 **** 0.06
15498 H 51.10442050511192 174.6833857085576 178.39295338138194 H 0.0 **** 0.06
15499 H 51.933186214144385 174.95852897418695 179.94484608078466 H 0.0 **** 0.06
15500 H 50.18196858594365 174.64341746467255 179.91525175510606 H 0.0 **** 0.06
15501 C 153.704717622613 149.7168047646925 177.86349025833897 C 0.0 **** -0.24
15502 H 154.52234266837058 149.1630666928592 178.3252887022506 H 0.0 **** 0.06
15503 H 153.44956140617182 150.57396420194289 178.48687727767634 H 0.0 **** 0.06
15504 H 152.836225200603 149.06597968786525 177.7643187641628 H 0.0 **** 0.06
15505 H 154.01364279853073 150.06397009602668 176.8767522642878 H 0.0 **** 0.06
15506 C 174.7022751737732 47.31392078772596 156.85040669557605 C 0.0 **** -0.24
15507 H 174.25115756534979 46.958462650537896 155.92352277577572 H 0.0 **** 0.06
15508 H 174.5012392116061 48.378362281469066 156.96759965133637 H 0.0 **** 0.06
15509 H 175.77872803554487 47.147668423901195 156.8166318969256 H 0.0 **** 0.06
15510 H 174.27660297512577 46.76742010817124 157.69292113997594 H 0.0 **** 0.06
15511 C 129.8574090095808 176.69070316178664 85.02815993894006 C 0.0 **** -0.24
15512 H 128.91666096830994 177.1613012900075 84.74274640818311 H 0.0 **** 0.06
15513 H 129.99384279545848 176.77526782381887 86.10661949843984 H 0.0 **** 0.06
15514 H 130.6825927246917 177.1877528731158 84.5174606132457 H 0.0 **** 0.06
15515 H 129.83738117763244 175.63796434922142 84.74593441411673 H 0.0 **** 0.06
15516 C 73.17142076963833 36.645975116926536 75.74390838471453 C 0.0 **** -0.24
15517 H 73.51369733673063 35.6294162346008 75.54691045444065 H 0.0 **** 0.06
15518 H 73.68328570631883 37.337146188900476 75.07322646714181 H 0.0 **** 0.06
15519 H 73.39483641647729 36.909124441222275 76.77764976301751 H 0.0 **** 0.06
15520 H 72.09644285659326 36.705536657733575 75.57742042288191 H 0.0 **** 0.06
15521 C 11.466130250014317 33.795421853294684 173.94609428144219 C 0.0 **** -0.24
15522 H 10.82673285658214 34.568364402579874 174.37322560437818 H 0.0 **** 0.06
15523 H 11.24185474269916 33.68440141116626 172.88588048871733 H 0.0 **** 0.06
15524 H 11.28346537393287 32.850634528845404 174.4577521846859 H 0.0 **** 0.06
15525 H 12.510433662763035 34.079744742089574 174.0696952735991 H 0.0 **** 0.06
15526 C 182.00289527585534 55.87570768689807 44.43631198301904 C 0.0 **** -0.24
15527 H 181.04365037769614 55.72550323767939 43.940589055674025 H 0.0 **** 0.06
15528 H 181.9751032864077 56.804604388983705 45.00568785025456 H 0.0 **** 0.06
15529 H 182.7935623256267 55.93147945461942 43.687718967253204 H 0.0 **** 0.06
15530 H 182.19743758066727 55.04091353312697 45.110006563529 H 0.0 **** 0.06
15531 C 181.98717810012877 111.83428992434496 144.88004616818213 C 0.0 **** -0.24
15532 H 182.85100119312943 112.47903600739916 145.04564370883756 H 0.0 **** 0.06
15533 H 181.12119275148837 112.44640216613182 144.6236316630707 H 0.0 **** 0.06
15534 H 181.7761961513153 111.26871284171175 145.78786694050387 H 0.0 **** 0.06
15535 H 182.19951596945455 111.14531753545937 144.06318080989968 H 0.0 **** 0.06
15536 C 26.931483066473447 114.06472461383493 120.30766631379849 C 0.0 **** -0.24
15537 H 27.07503541588528 113.22910505721609 119.62239990459845 H 0.0 **** 0.06
15538 H 25.884975365026207 114.11026614626729 120.60918076514834 H 0.0 **** 0.06
15539 H 27.206889384739384 114.99444733975974 119.80979647527484 H 0.0 **** 0.06
15540 H 27.557598905174643 113.9244080393807 121.18770866010202 H 0.0 **** 0.06
15541 C 68.06098864825962 95.86377908424349 84.71838389506506 C 0.0 **** -0.24
15542 H 67.26299184934267 95.50915645615576 84.06570152601509 H 0.0 **** 0.06
15543 H 68.61731652210301 96.65560710173715 84.21543450989506 H 0.0 **** 0.06
15544 H 68.73277873969278 95.03850234064517 84.95210746206062 H 0.0 **** 0.06
15545 H 67.62900610776924 96.2525739604112 85.64171051472904 H 0.0 **** 0.06
15546 C 38.566650662185964 9.479480699348798 145.02190752724175 C 0.0 **** -0.24
15547 H 38.13890868963145 8.49787455656326 145.22609996395406 H 0.0 **** 0.06
15548 H 37.79535258721421 10.133772543052523 144.61405478827328 H 0.0 **** 0.06
15549 H 39.37765016578015 9.37906025773853 144.29967422975082 H 0.0 **** 0.06
15550 H 38.95440111518553 9.907016167223937 145.94643138722336 H 0.0 **** 0.06
15551 C 179.1498175768348 129.0994663133185 122.52299421869607 C 0.0 **** -0.24
15552 H 179.7428101233067 128.37244856585602 121.96902186137619 H 0.0 **** 0.06
15553 H 179.39666500231672 130.10565479244798 122.18115872012699 H 0.0 **** 0.06
15554 H 179.36982481787413 129.01263389314335 123.58675513816509 H 0.0 **** 0.06
15555 H 178.0904468465215 128.90812104291632 122.35415409081158 H 0.0 **** 0.06
15556 C 83.85755136515913 19.136139852033295 100.46133556591359 C 0.0 **** -0.24
15557 H 84.37182461190154 18.189767170616378 100.62476477620653 H 0.0 **** 0.06
15558 H 84.58386642238604 19.90304480519646 100.1914492863498 H 0.0 **** 0.06
15559 H 83.33878465163292 19.43123929166201 101.37403091947131 H 0.0 **** 0.06
15560 H 83.13433419903781 19.021484066611798 99.65333657570288 H 0.0 **** 0.06
15561 C 157.87358729792496 53.43664538496512 147.99947604742647 C 0.0 **** -0.24
15562 H 157.95501422608942 53.37929697702077 149.08493778318396 H 0.0 **** 0.06
15563 H 157.94880722539878 54.477403681217424 147.68355436746575 H 0.0 **** 0.06
15564 H 156.91132260875105 53.03100508757359 147.68602111227403 H 0.0 **** 0.06
15565 H 158.67813081121136 52.85963345266228 147.54391230846267 H 0.0 **** 0.06
15566 C 104.29909389894277 123.55556162101901 39.25124549569118 C 0.0 **** -0.24
15567 H 103.83447328630206 123.80544343326333 40.205026459644415 H 0.0 **** 0.06
15568 H 103.52445707269345 123.32084482203506 38.52099130507955 H 0.0 **** 0.06
15569 H 104.95036586674331 122.69119114937679 39.38130270429741 H 0.0 **** 0.06
15570 H 104.88625437474889 124.40344292933305 38.89891295620711 H 0.0 **** 0.06
15571 C 71.73395467489823 102.37101982889781 16.383853590898944 C 0.0 **** -0.24
15572 H 72.237632261764 102.84946519453904 15.543826634561228 H 0.0 **** 0.06
15573 H 72.11116056054117 101.35528022887284 16.5032652827865 H 0.0 **** 0.06
15574 H 70.66119286273783 102.34164446070973 16.195082496997195 H 0.0 **** 0.06
15575 H 71.92720722055587 102.94018486872365 17.294180466767386 H 0.0 **** 0.06
15576 C 114.78556143141567 84.76328125170113 121.8465095644428 C 0.0 **** -0.24
15577 H 113.9479933388901 84.07121883842626 121.76846065872395 H 0.0 **** 0.06
15578 H 114.95038257533973 85.01751175435385 122.8937436428864 H 0.0 **** 0.06
15579 H 114.56317832067892 85.66917989025268 121.28277845217171 H 0.0 **** 0.06
15580 H 115.6823235059285 84.294809479312 121.44147088285366 H 0.0 **** 0.06
15581 C 169.60328666406468 173.04386579435425 81.88949500720746 C 0.0 **** -0.24
15582 H 170.16521405165417 173.9620471335421 81.7181328039633 H 0.0 **** 0.06
15583 H 170.25419968874064 172.1845197148405 81.7331368404516 H 0.0 **** 0.06
15584 H 168.76529704181775 172.99731087334584 81.19477105541418 H 0.0 **** 0.06
15585 H 169.22685074479307 173.03480234333733 82.91300673010501 H 0.0 **** 0.06
15586 C 140.68473281376146 116.35412297963774 113.63544871931117 C 0.0 **** -0.24
15587 H 140.7715305281451 117.31997118856043 113.13831921577042 H 0.0 **** 0.06
15588 H 141.6643039838117 115.88025789247303 113.68190859259943 H 0.0 **** 0.06
15589 H 139.9986039162651 115.7186713969532 113.07604030798888 H 0.0 **** 0.06
15590 H 140.30254607889088 116.50036842231322 114.64623304796146 H 0.0 **** 0.06
15591 C 179.0826532418982 147.24559111588997 18.390722925904072 C 0.0 **** -0.24
15592 H 179.8121395810859 146.61430558324759 17.884126833444327 H 0.0 **** 0.06
15593 H 178.19441388705278 146.65866959668944 18.625721555839164 H 0.0 **** 0.06
15594 H 178.8077733352469 148.07615823725234 17.74078627511244 H 0.0 **** 0.06
15595 H 179.51640007900042 147.63335939473322 19.313242216784488 H 0.0 **** 0.06
15596 C 95.85156815630582 66.70100164231098 175.06122825258447 C 0.0 **** -0.24
15597 H 94.97542263129104 66.39340162886458 174.49005435306265 H 0.0 **** 0.06
15598 H 96.26672192156168 67.61124869851176 174.62725124953187 H 0.0 **** 0.06
15599 H 96.60066993593848 65.91013046650363 175.03279141252233 H 0.0 **** 0.06
15600 H 95.56164184867644 66.89067402785406 176.095593048504 H 0.0 **** 0.06
15601 C 168.7723597384133 123.62264337828015 22.093763987348495 C 0.0 **** -0.24
15602 H 168.14727897019398 123.33396098965437 21.248281938617453 H 0.0 **** 0.06
15603 H 168.17825350783568 124.20034856329909 22.80310587455267 H 0.0 **** 0.06
15604 H 169.60599417672137 124.22848428980762 21.738447537120663 H 0.0 **** 0.06
15605 H 169.15603549453178 122.7291382922844 22.58442567765394 H 0.0 **** 0.06
15606 C 167.28322227821303 110.79597664606676 183.7383268970299 C 0.0 **** -0.24
15607 H 167.5562599008567 110.00141612541599 183.04280807166228 H 0.0 **** 0.06
15608 H 168.1753224869467 111.14503952637243 184.25878601919328 H 0.0 **** 0.06
15609 H 166.5657989670766 110.41152052630558 184.4634156168788 H 0.0 **** 0.06
15610 H 166.83600667993093 111.62301269365067 183.18680178467292 H 0.0 **** 0.06
15611 C 76.13430473108579 144.92001160262527 100.24285770631722 C 0.0 **** -0.24
15612 H 76.8900239945052 144.23597996254028 100.6309614442251 H 0.0 **** 0.06
15613 H 76.4464333899705 145.94835558527936 100.42816487116558 H 0.0 **** 0.06
15614 H 75.18458841185647 144.73214006826885 100.74225787360326 H 0.0 **** 0.06
15615 H 76.01907813329588 144.7623512459719 99.17031846902752 H 0.0 **** 0.06
15616 C 36.48058395078803 117.41314289888938 77.67190091702662 C 0.0 **** -0.24
15617 H 36.349640088532794 118.29804133124647 78.29526104493408 H 0.0 **** 0.06
15618 H 35.61297097045684 116.7613823969685 77.7811820312792 H 0.0 **** 0.06
15619 H 37.37796817748108 116.87904245647589 77.9824562313247 H 0.0 **** 0.06
15620 H 36.57877927419548 117.71422028208274 76.62976397427488 H 0.0 **** 0.06
15621 C 103.60902246037176 112.69426283563676 45.468995917329835 C 0.0 **** -0.24
15622 H 104.64980224067193 112.38406188589242 45.36729427208991 H 0.0 **** 0.06
15623 H 102.95767002981302 111.83219804627645 45.32276086465386 H 0.0 **** 0.06
15624 H 103.38199849819841 113.45268965885423 44.71976615450363 H 0.0 **** 0.06
15625 H 103.44912276906172 113.1069486465775 46.46431789280611 H 0.0 **** 0.06
15626 C 169.9348003474016 142.48318680539012 36.28138696281236 C 0.0 **** -0.24
15627 H 169.2700469125076 142.2705767082141 37.1195982846463 H 0.0 **** 0.06
15628 H 170.18486391288474 141.55248698830133 35.771547340031816 H 0.0 **** 0.06
15629 H 170.84723705802872 142.95092457146552 36.65125720362106 H 0.0 **** 0.06
15630 H 169.4367276725347 143.15753667175105 35.58498892726965 H 0.0 **** 0.06
15631 C 99.47555157291066 6.78869999779846 91.68873212118484 C 0.0 **** -0.24
15632 H 98.52839384518944 6.402554281770563 92.06551599825286 H 0.0 **** 0.06
15633 H 99.90215902701561 7.478932863934375 92.41638590473957 H 0.0 **** 0.06
15634 H 99.30563683751478 7.312214637415764 90.74735186137383 H 0.0 **** 0.06
15635 H 100.1643913637896 5.95963783308062 91.52456741770777 H 0.0 **** 0.06
15636 C 123.2857420835715 67.54832577494355 1.1533256692689733 C 0.0 **** -0.24
15637 H 123.11008016640011 67.13426253654464 0.16141143826921223 H 0.0 **** 0.06
15638 H 122.99174774559378 66.81922889496622 1.9088079314928024 H 0.0 **** 0.06
15639 H 122.69686876507723 68.45697022808233 1.2763737170355824 H 0.0 **** 0.06
15640 H 124.34451034676067 67.78273445585515 1.2676747878590575 H 0.0 **** 0.06
15641 C 12.2884471221235 174.27589055817253 6.32013005881268 C 0.0 **** -0.24
15642 H 12.834860177871633 173.59316114584865 6.971019981355255 H 0.0 **** 0.06
15643 H 12.995051556155772 174.90158783360675 5.7753517154450265 H 0.0 **** 0.06
15644 H 11.632789806212372 174.90539829521694 6.92134287012459 H 0.0 **** 0.06
15645 H 11.691307494622265 173.70110998825544 5.612006530049484 H 0.0 **** 0.06
15646 C 76.0876287566371 169.68380267038452 152.0939663907917 C 0.0 **** -0.24
15647 H 75.27585998966666 170.28051495673674 151.67851691383734 H 0.0 **** 0.06
15648 H 77.04212577384686 170.14925853918453 151.8484350505889 H 0.0 **** 0.06
15649 H 76.05407903537457 168.67962766811684 151.67142367981674 H 0.0 **** 0.06
15650 H 75.97834200465995 169.62671385684064 153.17707702322977 H 0.0 **** 0.06
15651 C 28.138722053073465 27.409777982315745 40.766096596531426 C 0.0 **** -0.24
15652 H 28.502904168512615 26.440584436946878 40.4251822029659 H 0.0 **** 0.06
15653 H 27.929581237057022 27.362589490183368 41.835990418935324 H 0.0 **** 0.06
15654 H 27.226232973399462 27.664147142471876 40.22826545574979 H 0.0 **** 0.06
15655 H 28.89651001681638 28.1694173320505 40.57782076176139 H 0.0 **** 0.06
15656 C 32.88365984912127 141.42245623710073 127.72754690931488 C 0.0 **** -0.24
15657 H 31.795497947733566 141.4548270636178 127.69625601162248 H 0.0 **** 0.06
15658 H 33.2811628819685 142.4286611278307 127.59264533910066 H 0.0 **** 0.06
15659 H 33.25132160868549 140.77742520637548 126.92920226234459 H 0.0 **** 0.06
15660 H 33.20847772023944 141.02896252460397 128.6907869696646 H 0.0 **** 0.06
15661 C 158.52814633457444 129.31305883350376 69.2237795127168 C 0.0 **** -0.24
15662 H 158.5653236456273 130.16920161589815 68.55046254617217 H 0.0 **** 0.06
15663 H 158.79346059353992 129.63228722694578 70.23209293724622 H 0.0 **** 0.06
15664 H 159.23192750222137 128.55337447442747 68.88532703733652 H 0.0 **** 0.06
15665 H 157.5193730423386 128.89846599755617 69.22797757495054 H 0.0 **** 0.06
15666 C 100.65220500251242 66.36907194070577 184.19539376412655 C 0.0 **** -0.24
15667 H 100.19604457796133 66.89818084243328 183.3591247986193 H 0.0 **** 0.06
15668 H 100.14145736389311 65.41782427017353 184.34532403108358 H 0.0 **** 0.06
15669 H 100.56665046557139 66.97513464706458 185.09801428869253 H 0.0 **** 0.06
15670 H 101.70497571388871 66.18813109410132 183.97903157474911 H 0.0 **** 0.06
15671 C 39.75296953771567 148.27917489143732 156.40785471721267 C 0.0 **** -0.24
15672 H 39.75322674808092 149.27074810333013 156.86130579577087 H 0.0 **** 0.06
15673 H 39.42452305570731 148.35544222565633 155.37160641171937 H 0.0 **** 0.06
15674 H 39.07429847121682 147.62880730393454 156.95811002579825 H 0.0 **** 0.06
15675 H 40.76087831104428 147.86528379838688 156.44066378493994 H 0.0 **** 0.06
15676 C 137.57022431782667 69.99134667899239 101.20789260671991 C 0.0 **** -0.24
15677 H 136.7262092565066 69.95393965980094 100.5181022829863 H 0.0 **** 0.06
15678 H 137.20304811832807 70.14068939147322 102.22336577773292 H 0.0 **** 0.06
15679 H 138.22730318038504 70.8170225349666 100.93377926238132 H 0.0 **** 0.06
15680 H 138.1233368254376 69.05353105649999 101.154603024808 H 0.0 **** 0.06
15681 C 38.79199360325185 146.827472868018 135.085083517229 C 0.0 **** -0.24
15682 H 39.145835202379146 146.50512459298017 134.10611310882297 H 0.0 **** 0.06
15683 H 39.645656942685065 147.00890569111078 135.73854232297424 H 0.0 **** 0.06
15684 H 38.16121732531377 146.05056719424493 135.51770140550587 H 0.0 **** 0.06
15685 H 38.21420820218819 147.7456006041872 134.9770887840338 H 0.0 **** 0.06
15686 C 29.8626341112178 94.53335902294042 21.8406408454604 C 0.0 **** -0.24
15687 H 30.14734385890742 95.40275165360067 22.43442128515295 H 0.0 **** 0.06
15688 H 30.76123625685844 94.02017151633017 21.49601326743928 H 0.0 **** 0.06
15689 H 29.27617051726739 94.85599930943603 20.981311443125833 H 0.0 **** 0.06
15690 H 29.269112944480128 93.8549889874257 22.452461938637896 H 0.0 **** 0.06
15691 C 167.89451042427456 36.71354000872577 90.7445208882037 C 0.0 **** -0.24
15692 H 166.92777585916184 36.45646894783175 90.31217253242555 H 0.0 **** 0.06
15693 H 168.34842511591125 35.82119593050544 91.1759937975237 H 0.0 **** 0.06
15694 H 167.75612345654037 37.46341827554008 91.52437410089028 H 0.0 **** 0.06
15695 H 168.54528364672325 37.11425274319561 89.96764775287322 H 0.0 **** 0.06
15696 C 94.63705003256297 89.7913102828859 53.807093413259864 C 0.0 **** -0.24
15697 H 94.58778574080321 90.85331730948774 53.56629376129311 H 0.0 **** 0.06
15698 H 95.0772621607652 89.66373790914325 54.79612422084669 H 0.0 **** 0.06
15699 H 95.25115820877949 89.27913449962507 53.066361019584605 H 0.0 **** 0.06
15700 H 93.63083981494896 89.37092689891385 53.79920672327806 H 0.0 **** 0.06
15701 C 58.29819412405503 4.9020566123173595 150.00656085544355 C 0.0 **** -0.24
15702 H 58.47665363310951 3.8393305694129367 150.17787631273862 H 0.0 **** 0.06
15703 H 57.53632844012316 5.0211016005045295 149.2354782656503 H 0.0 **** 0.06
15704 H 59.22365959614625 5.377474549548467 149.6814304031286 H 0.0 **** 0.06
15705 H 57.955948969433635 5.365757595270416 150.931849470359 H 0.0 **** 0.06
15706 C 19.419836277159447 161.37356771006148 177.79539228871838 C 0.0 **** -0.24
15707 H 19.12347857897589 160.82894026387808 178.69157051316301 H 0.0 **** 0.06
15708 H 20.460731072551198 161.14970794146058 177.56317648982747 H 0.0 **** 0.06
15709 H 19.307020673145416 162.4438557850712 177.96691030041939 H 0.0 **** 0.06
15710 H 18.78705469434601 161.0700856433153 176.9609364871103 H 0.0 **** 0.06
15711 C 165.33886871615695 59.62434351745111 147.4858253568798 C 0.0 **** -0.24
15712 H 166.22883442870153 60.06977152947718 147.04077447210892 H 0.0 **** 0.06
15713 H 164.63902571414798 59.34642622569834 146.6976780882883 H 0.0 **** 0.06
15714 H 164.86685887845812 60.346337124285185 148.15280611261824 H 0.0 **** 0.06
15715 H 165.62126269156718 58.73723411208903 148.05212994956628 H 0.0 **** 0.06
15716 C 119.09813538396851 138.47962448031473 163.21681393536005 C 0.0 **** -0.24
15717 H 119.06140185882118 137.3969154549382 163.09670075509894 H 0.0 **** 0.06
15718 H 119.32198816460634 138.72228055554 164.25606671891182 H 0.0 **** 0.06
15719 H 118.133300996626 138.90735404625298 162.94326247560025 H 0.0 **** 0.06
15720 H 119.87416331348338 138.891216502207 162.57249802647925 H 0.0 **** 0.06
15721 C 16.810723537493566 184.3183140061615 21.08835802127004 C 0.0 **** -0.24
15722 H 17.742999685818972 184.7109140809751 20.68230293998863 H 0.0 **** 0.06
15723 H 16.687691244279605 183.2795487686582 20.78053141455672 H 0.0 **** 0.06
15724 H 15.974477134615832 184.9096593633019 20.714885137636372 H 0.0 **** 0.06
15725 H 16.836619213435398 184.37447005612427 22.177123057079996 H 0.0 **** 0.06
15726 C 14.388261578733697 81.89810328718087 97.03794563574877 C 0.0 **** -0.24
15727 H 14.977935250711525 81.77984525216442 96.12912697957245 H 0.0 **** 0.06
15728 H 13.331917836939972 81.75758997576769 96.80699695637458 H 0.0 **** 0.06
15729 H 14.541649371679306 82.89834597076845 97.44371174559723 H 0.0 **** 0.06
15730 H 14.701093115002493 81.1559875668288 97.7725646218608 H 0.0 **** 0.06
15731 C 104.75730908434325 71.44814311695785 102.36162276001231 C 0.0 **** -0.24
15732 H 104.22737885179238 71.88124356787614 101.51366798843542 H 0.0 **** 0.06
15733 H 104.35177254330587 70.45846204589373 102.57705235397269 H 0.0 **** 0.06
15734 H 104.6332022618801 72.08997890788135 103.23371775052043 H 0.0 **** 0.06
15735 H 105.81741230487533 71.36217483878272 102.1215935992527 H 0.0 **** 0.06
15736 C 175.84847957396312 0.6408914312355876 11.249521005665088 C 0.0 **** -0.24
15737 H 175.5865929603994 1.4678448637292263 10.589518896732187 H 0.0 **** 0.06
15738 H 175.44294452403477 -0.28768582816380217 10.846379606293453 H 0.0 **** 0.06
15739 H 175.43042382051863 0.8189293808922571 12.239918006991815 H 0.0 **** 0.06
15740 H 176.9331654602331 0.5625582911143852 11.321436263515182 H 0.0 **** 0.06
15741 C 138.66846010088778 93.31726256263148 80.71477454163511 C 0.0 **** -0.24
15742 H 138.45382436944521 93.7732272995451 79.74861150755544 H 0.0 **** 0.06
15743 H 139.57926127558204 92.72239374477827 80.64161929791726 H 0.0 **** 0.06
15744 H 137.83689617554535 92.67524012612138 81.00606649688143 H 0.0 **** 0.06
15745 H 138.80319532918134 94.09885458094637 81.46314324951578 H 0.0 **** 0.06
15746 C 184.27763327085546 9.589962078992059 97.30099835200696 C 0.0 **** -0.24
15747 H 185.05786746485558 10.249789144303705 96.91925203146462 H 0.0 **** 0.06
15748 H 183.96218229113168 8.9083422627019 96.51072720737807 H 0.0 **** 0.06
15749 H 183.42678237930252 10.18627779427289 97.62894143574636 H 0.0 **** 0.06
15750 H 184.6666546331547 9.01637422671368 98.14200650124315 H 0.0 **** 0.06
15751 C 176.90533254357342 159.56830650859166 9.980063764227566 C 0.0 **** -0.24
15752 H 177.06514512454618 158.73029173261148 9.30169105335142 H 0.0 **** 0.06
15753 H 176.20965105988589 159.27237960136353 10.764859843440945 H 0.0 **** 0.06
15754 H 176.49160868772537 160.41103118840016 9.425893161301303 H 0.0 **** 0.06
15755 H 177.85562366700154 159.859942035867 10.42839164414329 H 0.0 **** 0.06
15756 C 129.18240438857538 106.75992049966193 156.0295426760168 C 0.0 **** -0.24
15757 H 128.23457260598332 107.24262133131133 155.78801996030995 H 0.0 **** 0.06
15758 H 129.34205580649353 106.7927118114295 157.10696715164468 H 0.0 **** 0.06
15759 H 129.99434250500434 107.28255435337293 155.52538230933072 H 0.0 **** 0.06
15760 H 129.15647999982747 105.72201906197095 155.69729593065173 H 0.0 **** 0.06
15761 C 40.569327933542866 13.420253939736995 126.75123569990787 C 0.0 **** -0.24
15762 H 40.43917598711084 13.485477494039799 127.83184374259945 H 0.0 **** 0.06
15763 H 39.90192846345599 12.656751621294092 126.35087519519381 H 0.0 **** 0.06
15764 H 41.60286550984654 13.154292691954481 126.52535276087202 H 0.0 **** 0.06
15765 H 40.334651539806146 14.38296133460969 126.29826241191917 H 0.0 **** 0.06
15766 C 121.88859792773695 65.97018468695487 180.79147876840716 C 0.0 **** -0.24
15767 H 122.04384658983543 65.90467809119849 181.86880978769412 H 0.0 **** 0.06
15768 H 122.69696624760053 66.54866311877345 180.34341990491674 H 0.0 **** 0.06
15769 H 120.93579892738035 66.46017321760485 180.5914896106125 H 0.0 **** 0.06
15770 H 121.87878796107259 64.96709602578561 180.3644245805589 H 0.0 **** 0.06
15771 C 7.574230043580741 44.9616992731234 22.150440742268927 C 0.0 **** -0.24
15772 H 8.539432572545138 44.696110750110165 21.719202782235214 H 0.0 **** 0.06
15773 H 7.247162994078451 44.168285142493744 22.82304504256848 H 0.0 **** 0.06
15774 H 6.841738721997899 45.08637332346838 21.352285848898703 H 0.0 **** 0.06
15775 H 7.668964967957862 45.89386261696701 22.706148510275682 H 0.0 **** 0.06
15776 C 138.6313926888082 135.54176222863032 157.68057136666914 C 0.0 **** -0.24
15777 H 137.66921080486134 135.5513533174477 158.19195124403637 H 0.0 **** 0.06
15778 H 139.25664292593666 134.75143663815498 158.09683088077654 H 0.0 **** 0.06
15779 H 139.12507560846018 136.50468690779297 157.81720459003503 H 0.0 **** 0.06
15780 H 138.476090220225 135.36115390872573 156.6174814779455 H 0.0 **** 0.06
15781 C 15.062576729423427 53.59126782070655 10.044279357961159 C 0.0 **** -0.24
15782 H 15.42490072907799 54.11295241689231 9.158471893406556 H 0.0 **** 0.06
15783 H 13.99394224667222 53.776413634925746 10.162155494954106 H 0.0 **** 0.06
15784 H 15.593823364617577 53.95655545332323 10.923161216352923 H 0.0 **** 0.06
15785 H 15.236302848601412 52.5216603206149 9.932376000551358 H 0.0 **** 0.06
15786 C 123.9901782795106 44.120115064434344 135.38595202650146 C 0.0 **** -0.24
15787 H 124.27636764193782 43.13070376026792 135.74198611309896 H 0.0 **** 0.06
15788 H 122.90218735416697 44.1891796884575 135.34066132450687 H 0.0 **** 0.06
15789 H 124.40646482627666 44.28317993247896 134.39223440833325 H 0.0 **** 0.06
15790 H 124.3736567899819 44.876695473602126 136.06952692813059 H 0.0 **** 0.06
15791 C 143.09650548477578 119.53058805600426 19.194708911062754 C 0.0 **** -0.24
15792 H 143.64494204187963 118.75276748393958 18.66381640577709 H 0.0 **** 0.06
15793 H 143.52446045226077 120.50379095025062 18.954746352604232 H 0.0 **** 0.06
15794 H 143.16648570352788 119.35693155802352 20.268135449327787 H 0.0 **** 0.06
15795 H 142.04920171467887 119.50905996935955 18.89011448089245 H 0.0 **** 0.06
15796 C 40.837484508992816 60.45172755267458 39.498204331173156 C 0.0 **** -0.24
15797 H 40.3188605273853 59.493038597658426 39.46838760312414 H 0.0 **** 0.06
15798 H 41.21894211881498 60.626343432005285 40.5043304437807 H 0.0 **** 0.06
15799 H 40.14394284752571 61.248484998330724 39.22954860861981 H 0.0 **** 0.06
15800 H 41.666875393938966 60.43817449821398 38.79242434360225 H 0.0 **** 0.06
15801 C 63.13525561344753 47.657076213884665 109.64656771543441 C 0.0 **** -0.24
15802 H 62.55982683051526 47.98858731507008 110.5111933459698 H 0.0 **** 0.06
15803 H 64.06898285767399 48.21841078256327 109.5950183638483 H 0.0 **** 0.06
15804 H 62.557950003421396 47.827427679000465 108.73891308637381 H 0.0 **** 0.06
15805 H 63.35478469186238 46.5938576398088 109.74392587264192 H 0.0 **** 0.06
15806 C 122.19116123884999 183.9025312984585 185.00804422363058 C 0.0 **** -0.24
15807 H 121.73451575676961 184.569739727303 185.73917634778007 H 0.0 **** 0.06
15808 H 122.34520998793192 182.9219624460206 185.45837418078054 H 0.0 **** 0.06
15809 H 123.15145921614186 184.31241340298934 184.6920317772026 H 0.0 **** 0.06
15810 H 121.53471029892222 183.80712133745268 184.14369045218422 H 0.0 **** 0.06
15811 C 157.49981406783357 3.4597055592449806 177.50382263178028 C 0.0 **** -0.24
15812 H 156.54872630399612 3.6743279988595248 177.99113632663875 H 0.0 **** 0.06
15813 H 158.31846192078424 3.7529696815446982 178.16085551160742 H 0.0 **** 0.06
15814 H 157.56405085232896 4.017911440038546 176.57048444965946 H 0.0 **** 0.06
15815 H 157.5665813661397 2.391792697151544 177.29360456779335 H 0.0 **** 0.06
15816 C 57.46112922746198 60.98657811801189 177.73468214855157 C 0.0 **** -0.24
15817 H 56.72457004028507 61.76661139062986 177.92794628402802 H 0.0 **** 0.06
15818 H 58.45146270947019 61.434922771807635 177.65425185254054 H 0.0 **** 0.06
15819 H 57.215419572586484 60.47745808429988 176.80274549860707 H 0.0 **** 0.06
15820 H 57.453064587506276 60.26732022531013 178.55378495903076 H 0.0 **** 0.06
15821 C 17.30884399923019 131.14277249586013 27.007427941356838 C 0.0 **** -0.24
15822 H 16.906904544397833 131.50636906399973 27.952756220972134 H 0.0 **** 0.06
15823 H 17.654857708186228 131.98713230466086 26.410155455902583 H 0.0 **** 0.06
15824 H 16.53026272773218 130.60688391207128 26.463838931853275 H 0.0 **** 0.06
15825 H 18.143991108251186 130.4695187990223 27.20339006759974 H 0.0 **** 0.06
15826 C 40.62432945815634 121.84972401190372 24.21195655280411 C 0.0 **** -0.24
15827 H 40.16316797500606 122.83547912015685 24.169221678799374 H 0.0 **** 0.06
15828 H 40.138634631221905 121.2552471007193 24.985817717287375 H 0.0 **** 0.06
15829 H 41.68396732604144 121.95301835220992 24.44372412945495 H 0.0 **** 0.06
15830 H 40.51048885590869 121.3526453173938 23.247798635158375 H 0.0 **** 0.06
15831 C 11.852610840604427 36.74328107260669 164.44258557806253 C 0.0 **** -0.24
15832 H 12.002468370884827 36.46446825982099 165.4862160348415 H 0.0 **** 0.06
15833 H 11.791474231870154 37.828744621254 164.3629014002193 H 0.0 **** 0.06
15834 H 10.927211393011959 36.29890330003337 164.07739028969058 H 0.0 **** 0.06
15835 H 12.690272269017129 36.381090886135325 163.8466678318181 H 0.0 **** 0.06
15836 C 152.57808048635746 106.34075530367318 10.378944090558463 C 0.0 **** -0.24
15837 H 152.87624741643054 106.07479499343896 11.393711054079688 H 0.0 **** 0.06
15838 H 152.67453674292653 107.41780386632286 10.242749589367605 H 0.0 **** 0.06
15839 H 151.54148040496747 106.04472757465408 10.215839109710316 H 0.0 **** 0.06
15840 H 153.2200428284435 105.82462864038189 9.665681894145166 H 0.0 **** 0.06
15841 C 70.08763376131479 74.23348598430947 19.92488197999154 C 0.0 **** -0.24
15842 H 70.61219935568917 75.14303426128691 20.218771840265276 H 0.0 **** 0.06
15843 H 70.28337847108003 73.44934464847121 20.655528755774412 H 0.0 **** 0.06
15844 H 70.43846521670376 73.91322841080125 18.943367455193794 H 0.0 **** 0.06
15845 H 69.01676757923354 74.43119751086773 19.880540934064868 H 0.0 **** 0.06
15846 C 174.18896053934145 90.55841254200351 157.412296289498 C 0.0 **** -0.24
15847 H 173.6721067158272 91.01829088019906 156.57037623010015 H 0.0 **** 0.06
15848 H 173.82533071042556 90.99433542848976 158.34355779005273 H 0.0 **** 0.06
15849 H 175.26061150606284 90.73609562949963 157.32158635365963 H 0.0 **** 0.06
15850 H 173.99686707921882 89.4859700693911 157.4139032661473 H 0.0 **** 0.06
15851 C 2.968528989069341 128.14663842149878 76.07744992595474 C 0.0 **** -0.24
15852 H 3.1601799076704538 127.47957004857803 76.91845711780658 H 0.0 **** 0.06
15853 H 3.88008713817743 128.69283185926196 75.83226251966275 H 0.0 **** 0.06
15854 H 2.1822968696434373 128.85133284355652 76.3461749919733 H 0.0 **** 0.06
15855 H 2.653168396076012 127.56048196229396 75.21386745603728 H 0.0 **** 0.06
15856 C 120.66350299586509 52.8632021767196 123.53067775164165 C 0.0 **** -0.24
15857 H 120.74631937656756 53.83798061342446 123.05082486785527 H 0.0 **** 0.06
15858 H 121.40837388347182 52.784395640719595 124.3223419770729 H 0.0 **** 0.06
15859 H 120.83363895993136 52.080118004536416 122.79237071826999 H 0.0 **** 0.06
15860 H 119.66628807344705 52.75136855762065 123.95529756067047 H 0.0 **** 0.06
15861 C 111.01240257536746 166.2760873414822 162.93947280363494 C 0.0 **** -0.24
15862 H 110.83026774109099 166.1984791390296 161.86724789669225 H 0.0 **** 0.06
15863 H 110.27497433080559 165.68094260382438 163.47698341678915 H 0.0 **** 0.06
15864 H 110.93271685598874 167.31893843981138 163.24578494264637 H 0.0 **** 0.06
15865 H 112.01268739722617 165.90698218493384 163.16524041383425 H 0.0 **** 0.06
15866 C 94.01822452680852 120.8051563472048 88.14785438761164 C 0.0 **** -0.24
15867 H 94.07385863825851 121.17765223661671 89.17100737508572 H 0.0 **** 0.06
15868 H 93.45790020084456 119.87031718285913 88.13279616509222 H 0.0 **** 0.06
15869 H 95.02550919971037 120.6314823959607 87.77031327680517 H 0.0 **** 0.06
15870 H 93.51580685927411 121.54124709192529 87.52090124194324 H 0.0 **** 0.06
15871 C 60.95963657818275 147.40943076309622 85.37254395021364 C 0.0 **** -0.24
15872 H 60.94330182006783 146.846165162587 86.30626576829098 H 0.0 **** 0.06
15873 H 60.146350914392556 148.1355586508186 85.37223148989818 H 0.0 **** 0.06
15874 H 60.836116297828596 146.7236697420479 84.53368165335576 H 0.0 **** 0.06
15875 H 61.913024885166365 147.93037207598127 85.27904918142605 H 0.0 **** 0.06
15876 C 78.73037765167498 62.05217959652943 151.41085454332278 C 0.0 **** -0.24
15877 H 79.64907392118141 61.6696527606649 150.96647774374347 H 0.0 **** 0.06
15878 H 78.96959400650371 62.60189211552027 152.3213434518728 H 0.0 **** 0.06
15879 H 78.06989780110473 61.21852646275826 151.65185290879495 H 0.0 **** 0.06
15880 H 78.23425104736458 62.71689433191811 150.70421527389067 H 0.0 **** 0.06
15881 C 166.33046305056425 120.96461182538552 23.396521857932584 C 0.0 **** -0.24
15882 H 165.74756055744268 121.76212902799683 22.936025004036026 H 0.0 **** 0.06
15883 H 165.8965192343019 120.70993613639833 24.363634793525094 H 0.0 **** 0.06
15884 H 167.35792156881394 121.30075034137316 23.534967687696422 H 0.0 **** 0.06
15885 H 166.31954737186413 120.08693677730814 22.74966968033921 H 0.0 **** 0.06
15886 C 162.09465425841302 152.87251972346746 46.278280721160485 C 0.0 **** -0.24
15887 H 161.4235315555006 152.41735277508255 45.55114477400241 H 0.0 **** 0.06
15888 H 161.73130604247976 153.86792563945886 46.535664722815056 H 0.0 **** 0.06
15889 H 163.09510949641543 152.95002831855555 45.85153826893385 H 0.0 **** 0.06
15890 H 162.12953071158904 152.2554724952049 47.17671643963935 H 0.0 **** 0.06
15891 C 125.3936223904905 63.59639626113375 173.5873200847044 C 0.0 **** -0.24
15892 H 124.34245385376629 63.345153674541194 173.44522069179376 H 0.0 **** 0.06
15893 H 125.47850695994448 64.41106282249083 174.30744188031804 H 0.0 **** 0.06
15894 H 125.82650617294725 63.90413437033193 172.6355783942522 H 0.0 **** 0.06
15895 H 125.92708681305398 62.72253844217086 173.96269138137313 H 0.0 **** 0.06
15896 C 40.480679492105864 1.2726207339322855 93.06004354119018 C 0.0 **** -0.24
15897 H 41.557179477904214 1.2192180832640531 93.2273586336138 H 0.0 **** 0.06
15898 H 40.00102884804221 1.7229355956012569 93.92914718885784 H 0.0 **** 0.06
15899 H 40.08714174243761 0.26789673326727126 92.90624795393593 H 0.0 **** 0.06
15900 H 40.280097774781936 1.8798758198700511 92.17790830491519 H 0.0 **** 0.06
15901 C 71.78675135443123 181.47617754996025 31.88022728946794 C 0.0 **** -0.24
15902 H 71.07053749536529 182.22983824490208 32.205901362303095 H 0.0 **** 0.06
15903 H 71.31116324667077 180.49525425147127 31.888277524960614 H 0.0 **** 0.06
15904 H 72.64148902444113 181.47160656888536 32.55604454705255 H 0.0 **** 0.06
15905 H 72.12422425315417 181.7092760346285 30.869575252259068 H 0.0 **** 0.06
15906 C 42.228314206357666 120.09888507703953 20.60473751709845 C 0.0 **** -0.24
15907 H 42.253465146697266 119.24655021215413 21.283966550896523 H 0.0 **** 0.06
15908 H 42.770734953029304 119.85186448084993 19.69244814016696 H 0.0 **** 0.06
15909 H 42.69439307014855 120.95968161026134 21.083859814480796 H 0.0 **** 0.06
15910 H 41.19284803329499 120.33619407684883 20.359051487398723 H 0.0 **** 0.06
15911 C 73.49540541151438 100.95041392915657 76.80463966387556 C 0.0 **** -0.24
15912 H 74.16312928074662 100.37989097775302 77.4493393863058 H 0.0 **** 0.06
15913 H 73.60282811596814 102.013585212521 77.0223862534921 H 0.0 **** 0.06
15914 H 72.46535035224744 100.64435968107826 76.98650974625443 H 0.0 **** 0.06
15915 H 73.7512718659939 100.76477856096623 75.76140180269275 H 0.0 **** 0.06
15916 C 101.56671755990233 13.91207302493288 128.70297073022573 C 0.0 **** -0.24
15917 H 100.63221099618825 13.711644953744639 129.22587072461056 H 0.0 **** 0.06
15918 H 102.3842504515476 13.401838284230479 129.21194895685824 H 0.0 **** 0.06
15919 H 101.756040938114 14.984900034299699 128.69435682636345 H 0.0 **** 0.06
15920 H 101.49359058736671 13.54830390610789 127.67751089897615 H 0.0 **** 0.06
15921 C 15.47305421734746 76.68104371431764 27.561937465006153 C 0.0 **** -0.24
15922 H 14.790685442334862 77.3342300574696 27.01777588387418 H 0.0 **** 0.06
15923 H 16.094799955375777 76.13385614190321 26.853937224954933 H 0.0 **** 0.06
15924 H 14.898162634106924 75.97664622595755 28.162729606600323 H 0.0 **** 0.06
15925 H 16.10738608610282 77.28272249539043 28.21422507924406 H 0.0 **** 0.06
15926 C 120.68705999280864 59.96589036841513 28.739400323599 C 0.0 **** -0.24
15927 H 120.61968792371697 58.96534301885451 28.312804077880116 H 0.0 **** 0.06
15928 H 121.73067812491404 60.278341464087504 28.769163710721557 H 0.0 **** 0.06
15929 H 120.28029840402131 59.95804492341789 29.750316149182993 H 0.0 **** 0.06
15930 H 120.11688572412497 60.66176342218819 28.124084668132923 H 0.0 **** 0.06
15931 C 41.92149554562276 161.42651047524015 154.4826417701371 C 0.0 **** -0.24
15932 H 41.67021012973085 160.4219037968083 154.14292509873246 H 0.0 **** 0.06
15933 H 42.06918532281334 162.0748363736808 153.61954003964996 H 0.0 **** 0.06
15934 H 42.837762342877156 161.39106523867312 155.07250037209502 H 0.0 **** 0.06
15935 H 41.10944239454268 161.81635752269074 155.09664448206692 H 0.0 **** 0.06
15936 C 12.748221870120801 51.911824179083595 23.124955573491576 C 0.0 **** -0.24
15937 H 13.782279831215902 51.75374178589553 22.816633528237062 H 0.0 **** 0.06
15938 H 12.677721839452659 52.83597647800572 23.69942459836109 H 0.0 **** 0.06
15939 H 12.421247054059194 51.07502868625356 23.741458707423718 H 0.0 **** 0.06
15940 H 12.11291264539119 51.983157763188075 22.24221831487168 H 0.0 **** 0.06
15941 C 161.43361198336996 63.10732846957019 113.51908915886797 C 0.0 **** -0.24
15942 H 160.64502383289192 62.354446456468864 113.50680970182798 H 0.0 **** 0.06
15943 H 161.1739212102229 63.91453180509228 112.83420096335847 H 0.0 **** 0.06
15944 H 162.3734450369432 62.65359100640353 113.20615548510703 H 0.0 **** 0.06
15945 H 161.5396073637923 63.50543801968438 114.52805552089175 H 0.0 **** 0.06
15946 C 12.389950029076942 172.03262489944956 126.44171739107112 C 0.0 **** -0.24
15947 H 12.28818000722191 171.83913701097913 127.5095065367292 H 0.0 **** 0.06
15948 H 13.352210762228651 172.5079420689669 126.24907976559031 H 0.0 **** 0.06
15949 H 11.586938639351558 172.69294248306957 126.11434488472354 H 0.0 **** 0.06
15950 H 12.332701669242056 171.0916109041365 125.89585237496296 H 0.0 **** 0.06
15951 C 111.7633982026925 148.42366744351602 98.417534163143 C 0.0 **** -0.24
15952 H 112.59206651605062 147.74458877403117 98.6192849033937 H 0.0 **** 0.06
15953 H 111.40069818275514 148.2631766393666 97.40320004013502 H 0.0 **** 0.06
15954 H 112.1054596294198 149.45381310015892 98.5235497415615 H 0.0 **** 0.06
15955 H 110.95788460338672 148.2340805977632 99.12668860501152 H 0.0 **** 0.06
15956 C 129.73446714745518 65.97836530310994 37.93322599224996 C 0.0 **** -0.24
15957 H 129.4709826616363 65.04685610116445 38.43412108490844 H 0.0 **** 0.06
15958 H 129.4120426569467 66.82274355745764 38.5435383771287 H 0.0 **** 0.06
15959 H 129.23861925890168 66.02169861078052 36.96319327423413 H 0.0 **** 0.06
15960 H 130.81395466716413 66.02274047153234 37.7927700384173 H 0.0 **** 0.06
15961 C 100.50076212210412 75.62582244925188 7.79541414690388 C 0.0 **** -0.24
15962 H 99.80932031319664 74.87719861909174 7.408340568246615 H 0.0 **** 0.06
15963 H 101.50416143861126 75.42136428207691 7.423058118379629 H 0.0 **** 0.06
15964 H 100.50254791137705 75.58840384020381 8.885151290598685 H 0.0 **** 0.06
15965 H 100.18603915475093 76.61605632218144 7.466091063763912 H 0.0 **** 0.06
15966 C 103.8036853860171 134.18356896922256 100.74246939754339 C 0.0 **** -0.24
15967 H 103.40693170222085 134.56351660212766 99.8005582046349 H 0.0 **** 0.06
15968 H 102.97821281324303 133.92111270589453 101.40454501087352 H 0.0 **** 0.06
15969 H 104.41749308041568 134.95147002961505 101.21376914310993 H 0.0 **** 0.06
15970 H 104.41134343439677 133.30027340708438 100.55084747336848 H 0.0 **** 0.06
15971 C 109.93567272063406 64.47423413060625 175.0735118162262 C 0.0 **** -0.24
15972 H 110.90128807318256 63.97148806393221 175.02239686133723 H 0.0 **** 0.06
15973 H 110.08794274239237 65.55340219442297 175.086219688183 H 0.0 **** 0.06
15974 H 109.41611703151786 64.17033601929552 175.98342952677396 H 0.0 **** 0.06
15975 H 109.33689937687011 64.2011568051945 174.2043457610642 H 0.0 **** 0.06
15976 C 80.78552848248259 121.04989176802904 76.8817421900098 C 0.0 **** -0.24
15977 H 81.0218738318281 120.92884390572085 75.82483933705481 H 0.0 **** 0.06
15978 H 79.71656055243749 121.23220322815858 76.99689637430494 H 0.0 **** 0.06
15979 H 81.34344363316004 121.89472190114519 77.28431897606603 H 0.0 **** 0.06
15980 H 81.0603284340493 120.1429538452741 77.42144209217213 H 0.0 **** 0.06
15981 C 55.28308346199378 90.69639086910864 47.49024844239693 C 0.0 **** -0.24
15982 H 55.48586983496119 91.0589533050536 48.49787015941166 H 0.0 **** 0.06
15983 H 56.10657350693981 90.97442629697191 46.83150961596843 H 0.0 **** 0.06
15984 H 54.35796524648947 91.1412369331408 47.12436920350052 H 0.0 **** 0.06
15985 H 55.18125666756896 89.61096527200156 47.50937851334021 H 0.0 **** 0.06
15986 C 167.69173494345387 87.72071982678267 101.18762214088348 C 0.0 **** -0.24
15987 H 168.13824635428097 88.5304847475092 101.76425259779369 H 0.0 **** 0.06
15988 H 167.50729971105457 88.05988301760402 100.16807697336891 H 0.0 **** 0.06
15989 H 166.74849601828754 87.42493161875501 101.64875994260636 H 0.0 **** 0.06
15990 H 168.37111303142296 86.86882583293374 101.17052281595859 H 0.0 **** 0.06
15991 C 111.6716421239057 183.65839431019344 1.830031488362856 C 0.0 **** -0.24
15992 H 112.3278480412201 184.270976556803 1.2105936911360047 H 0.0 **** 0.06
15993 H 110.70710765105905 184.1555303650241 1.938407613225806 H 0.0 **** 0.06
15994 H 112.12310126215574 183.52303054338898 2.8124925014397633 H 0.0 **** 0.06
15995 H 111.53027759485836 182.686651002746 1.3576012165803562 H 0.0 **** 0.06
15996 C 7.41049126521537 37.54417223017953 181.45022025029965 C 0.0 **** -0.24
15997 H 6.657881327008994 36.877671522141156 181.8712065264329 H 0.0 **** 0.06
15998 H 7.755157794748129 38.23484379183128 182.2205417209421 H 0.0 **** 0.06
15999 H 6.9758284766744225 38.10816821593528 180.62420137527948 H 0.0 **** 0.06
16000 H 8.25271523937613 36.957067872635946 181.0857828991471 H 0.0 **** 0.06
16001 C 179.3078269297062 94.48693685900572 16.903120942249615 C 0.0 **** -0.24
16002 H 180.09334337855614 95.24226121564637 16.892194945510937 H 0.0 **** 0.06
16003 H 178.4717368724203 94.84233912283538 17.506658884384194 H 0.0 **** 0.06
16004 H 179.69829779750603 93.56342380950225 17.330099280053844 H 0.0 **** 0.06
16005 H 178.96829204476455 94.30185937570285 15.884083775533725 H 0.0 **** 0.06
16006 C 120.84600824552668 167.9388558997788 48.82749166818434 C 0.0 **** -0.24
16007 H 120.96824763879182 168.98590522149323 49.10133572228378 H 0.0 **** 0.06
16008 H 121.82464686208151 167.45905582775998 48.78045165305315 H 0.0 **** 0.06
16009 H 120.36166116550028 167.87131282891517 47.85343150626039 H 0.0 **** 0.06
16010 H 120.23073415438752 167.43706515858793 49.57447373884639 H 0.0 **** 0.06
16011 C 64.70557561532219 141.87062229646864 148.58444568668378 C 0.0 **** -0.24
16012 H 65.3326731040508 142.21142355951173 149.4084448423976 H 0.0 **** 0.06
16013 H 65.15633552187258 142.1701827918663 147.6377702383328 H 0.0 **** 0.06
16014 H 63.7152832846438 142.31689676007107 148.67349936690414 H 0.0 **** 0.06
16015 H 64.61995623936036 140.7847475379648 148.6188649122907 H 0.0 **** 0.06
16016 C 38.180806772824894 155.85113949886323 57.06198444262512 C 0.0 **** -0.24
16017 H 38.13322160282243 156.85313128593017 56.6367910192825 H 0.0 **** 0.06
16018 H 37.21497587995198 155.59555152686266 57.498195224675214 H 0.0 **** 0.06
16019 H 38.948519662708165 155.82041070897932 57.83567950135209 H 0.0 **** 0.06
16020 H 38.42683192938037 155.13500225118491 56.27856922462777 H 0.0 **** 0.06
16021 C 120.32322551333424 124.297373310759 97.55557804005491 C 0.0 **** -0.24
16022 H 119.39204754123016 123.73250369312176 97.61288681759373 H 0.0 **** 0.06
16023 H 120.71289399645913 124.4561695778436 98.56172644557535 H 0.0 **** 0.06
16024 H 120.1345134214409 125.26129667737423 97.08227700529488 H 0.0 **** 0.06
16025 H 121.05121639722505 123.73908259941145 96.96761962372096 H 0.0 **** 0.06
16026 C 183.78800409427558 77.41746180661465 159.0934989173848 C 0.0 **** -0.24
16027 H 182.9682526670736 76.69868735455448 159.06847340255655 H 0.0 **** 0.06
16028 H 184.72999002984366 76.89904841915997 158.9143916261159 H 0.0 **** 0.06
16029 H 183.81721062260286 77.90030635122532 160.07051606096218 H 0.0 **** 0.06
16030 H 183.63406761965464 78.17017122028346 158.32029295264647 H 0.0 **** 0.06
16031 C 174.2683764775573 67.68277941388192 85.42964894273774 C 0.0 **** -0.24
16032 H 173.64616328329134 67.23692838128324 86.20566824773681 H 0.0 **** 0.06
16033 H 173.63115995636673 68.11374811527935 84.65743948516058 H 0.0 **** 0.06
16034 H 174.9058601294392 66.9155742956932 84.99037993679474 H 0.0 **** 0.06
16035 H 174.88876003746145 68.4647968021689 85.86803281416547 H 0.0 **** 0.06
16036 C 165.1042222713955 145.6459303695317 85.49792513645558 C 0.0 **** -0.24
16037 H 165.8142036942691 146.26121804675478 84.9447996272172 H 0.0 **** 0.06
16038 H 164.14607193861937 145.64100230276063 84.97728318372577 H 0.0 **** 0.06
16039 H 164.97154999190363 146.05610053677037 86.49920525252269 H 0.0 **** 0.06
16040 H 165.48482011886333 144.62696223926173 85.56883065884712 H 0.0 **** 0.06
16041 C 54.08870484952034 55.72006827123225 144.90102590075549 C 0.0 **** -0.24
16042 H 53.62321945060778 54.908597601266706 145.46039792126405 H 0.0 **** 0.06
16043 H 54.330944235238036 55.3753521268349 143.895249957741 H 0.0 **** 0.06
16044 H 55.00126166991086 56.033340158282215 145.4067967016101 H 0.0 **** 0.06
16045 H 53.39853331127425 56.56189749447921 144.8413754061703 H 0.0 **** 0.06
16046 C 74.8607292473152 73.98902479616508 30.149292540459214 C 0.0 **** -0.24
16047 H 73.85803202554398 74.35821697651164 29.932641226131977 H 0.0 **** 0.06
16048 H 75.56091030075154 74.38932295039184 29.41567189058685 H 0.0 **** 0.06
16049 H 74.86570704562865 72.89995192591272 30.099393841130563 H 0.0 **** 0.06
16050 H 75.15831605440134 74.3090211579662 31.148111741364687 H 0.0 **** 0.06
16051 C 184.59145161449777 122.86343082922826 7.148306783347323 C 0.0 **** -0.24
16052 H 184.5816913988706 123.93564237731647 6.949924521196408 H 0.0 **** 0.06
16053 H 184.41795123604984 122.32017193678053 6.220107599357249 H 0.0 **** 0.06
16054 H 183.80716839636017 122.61978348871128 7.865901517626469 H 0.0 **** 0.06
16055 H 185.56044085257008 122.5797842703364 7.560319981267099 H 0.0 **** 0.06
16056 C 67.98623211245223 43.04827499631108 62.853966855455155 C 0.0 **** -0.24
16057 H 68.2408597107185 43.95153213547741 63.40715728922822 H 0.0 **** 0.06
16058 H 66.95875526504898 43.11846274391388 62.49652682036884 H 0.0 **** 0.06
16059 H 68.0850883306017 42.181582361355694 63.50790622521397 H 0.0 **** 0.06
16060 H 68.66003173864544 42.940381075083536 62.00298896446881 H 0.0 **** 0.06
16061 C 88.87012957511256 56.327178904524374 14.650019893595974 C 0.0 **** -0.24
16062 H 89.09627426815426 56.55981090369423 15.690837027052176 H 0.0 **** 0.06
16063 H 87.79009732248899 56.24606120390058 14.523241976049057 H 0.0 **** 0.06
16064 H 89.3408353463406 55.38229513252094 14.378120827008267 H 0.0 **** 0.06
16065 H 89.25300617483497 57.12147069970496 14.009313709644765 H 0.0 **** 0.06
16066 C 34.62200735168224 73.51488188159408 150.4270254615587 C 0.0 **** -0.24
16067 H 34.830618676795126 73.84782372269376 151.44437566677232 H 0.0 **** 0.06
16068 H 33.6445373742298 73.88528901623664 150.11755434998452 H 0.0 **** 0.06
16069 H 34.62562151266043 72.42611561777858 150.39342061683726 H 0.0 **** 0.06
16070 H 35.38758858530714 73.90255403708005 149.7544252423055 H 0.0 **** 0.06
16071 C 34.68744934723907 138.83965438446847 43.61858753547148 C 0.0 **** -0.24
16072 H 35.738136950264106 139.07724502638314 43.44774068144022 H 0.0 **** 0.06
16073 H 34.611612105547465 137.8955054409862 44.15670445103217 H 0.0 **** 0.06
16074 H 34.17506016989057 138.7545856673691 42.65999376236044 H 0.0 **** 0.06
16075 H 34.22728850116255 139.63326934022194 44.207126112980234 H 0.0 **** 0.06
16076 C 113.69970337023251 42.66775048665136 11.655647807813892 C 0.0 **** -0.24
16077 H 112.7045574483861 42.942709440026874 11.304798048035877 H 0.0 **** 0.06
16078 H 113.87747814485529 41.612337777437745 11.448330381362524 H 0.0 **** 0.06
16079 H 113.76817096024176 42.84444597185001 12.728615763905651 H 0.0 **** 0.06
16080 H 114.44650332090502 43.270672240762735 11.138878459264077 H 0.0 **** 0.06
16081 C 133.09884126951846 170.38337657914943 159.06629032858217 C 0.0 **** -0.24
16082 H 132.06457676591884 170.04724167922745 159.1323857374707 H 0.0 **** 0.06
16083 H 133.76569090569762 169.5640777884803 159.3353134182159 H 0.0 **** 0.06
16084 H 133.25442398290585 171.2180317409621 159.75000821550356 H 0.0 **** 0.06
16085 H 133.31114170459676 170.70480739585116 158.0459192420363 H 0.0 **** 0.06
16086 C 128.02684936395968 138.98569255002803 12.505769113683968 C 0.0 **** -0.24
16087 H 128.1376861586147 139.53386269694516 11.569687877374044 H 0.0 **** 0.06
16088 H 127.46321683281813 138.0705191633084 12.325174543488927 H 0.0 **** 0.06
16089 H 127.49548538262788 139.6051665363359 13.228259018450785 H 0.0 **** 0.06
16090 H 129.01312511930468 138.73487111622717 12.897346855381507 H 0.0 **** 0.06
16091 C 43.27411351274327 77.28448558931639 146.43284309567446 C 0.0 **** -0.24
16092 H 43.943095632164784 76.59235085850904 146.94498840782973 H 0.0 **** 0.06
16093 H 43.86227565235103 78.01982213530378 145.88511616623475 H 0.0 **** 0.06
16094 H 42.64745286938677 77.79245460704432 147.1665625941871 H 0.0 **** 0.06
16095 H 42.64286423167255 76.73130363794382 145.7374198885703 H 0.0 **** 0.06
16096 C 98.08444299134635 154.09101857498126 178.08981247233146 C 0.0 **** -0.24
16097 H 98.73893899677466 153.22234454922796 178.16453054219687 H 0.0 **** 0.06
16098 H 98.64483948664679 154.99029876495695 178.345056015169 H 0.0 **** 0.06
16099 H 97.24737113593949 153.97503319401005 178.7780518612241 H 0.0 **** 0.06
16100 H 97.7084947845654 154.17446436931016 177.06943061121797 H 0.0 **** 0.06
16101 C 179.39508136648539 142.29393542754093 53.12965122989618 C 0.0 **** -0.24
16102 H 179.31504422230458 141.22500361284904 53.326196856085915 H 0.0 **** 0.06
16103 H 178.4513647748075 142.7808359123029 53.37764579083404 H 0.0 **** 0.06
16104 H 179.6193923194959 142.45371589549194 52.07569671183802 H 0.0 **** 0.06
16105 H 180.1937418033046 142.71645914964574 53.739625477568495 H 0.0 **** 0.06
16106 C 25.51016693838926 148.26742730293972 30.483041379478777 C 0.0 **** -0.24
16107 H 25.160498065892398 149.020072932318 31.18932148424534 H 0.0 **** 0.06
16108 H 26.225439824681814 148.71862640422276 29.79562125796059 H 0.0 **** 0.06
16109 H 24.663064714501274 147.87513138324107 29.9200377333745 H 0.0 **** 0.06
16110 H 25.991298379330885 147.45496151353484 31.027342063485435 H 0.0 **** 0.06
16111 C 37.78317912288799 52.73622290095517 64.26516004556085 C 0.0 **** -0.24
16112 H 38.09676488693711 52.56354034354743 65.2949353017666 H 0.0 **** 0.06
16113 H 38.578299730351546 52.42525793510967 63.587385468301434 H 0.0 **** 0.06
16114 H 37.57598604669545 53.796605332069674 64.12135639421462 H 0.0 **** 0.06
16115 H 36.882489757108885 52.15825896612816 64.05863954902357 H 0.0 **** 0.06
16116 C 88.49668435381204 45.55795484064892 179.50702122366872 C 0.0 **** -0.24
16117 H 88.31379974948436 46.05878046890348 178.55564311443905 H 0.0 **** 0.06
16118 H 87.57569664330413 45.0880806656248 179.8511233055689 H 0.0 **** 0.06
16119 H 88.83024679582172 46.288263767082356 180.24385317092288 H 0.0 **** 0.06
16120 H 89.26613836968369 44.79794404710701 179.37487565785437 H 0.0 **** 0.06
16121 C 89.0275825217027 140.59524996623878 184.6447223120723 C 0.0 **** -0.24
16122 H 89.99724420403606 140.53115281869572 184.1502749855409 H 0.0 **** 0.06
16123 H 88.55710680706562 141.5473817758877 184.39925951752548 H 0.0 **** 0.06
16124 H 89.16560277937515 140.5241869006129 185.7229355453183 H 0.0 **** 0.06
16125 H 88.39256085182961 139.77631989883196 184.30432338736267 H 0.0 **** 0.06
16126 C 152.6474183733749 16.986130362870114 36.47693357920491 C 0.0 **** -0.24
16127 H 151.7875534562558 16.386137595205497 36.179662058420604 H 0.0 **** 0.06
16128 H 152.3289386843292 18.011497705364263 36.66239473854341 H 0.0 **** 0.06
16129 H 153.39088116808696 16.97462599169154 35.67943617823181 H 0.0 **** 0.06
16130 H 153.08290765183168 16.569590860254323 37.385014129616366 H 0.0 **** 0.06
16131 C 57.95274649494503 108.49605917684026 91.09420930840118 C 0.0 **** -0.24
16132 H 57.89909493684884 108.7143575289732 90.02777051684818 H 0.0 **** 0.06
16133 H 57.5970048373011 107.48195495996872 91.27538012741222 H 0.0 **** 0.06
16134 H 57.32828437074511 109.20329187401138 91.64055932784537 H 0.0 **** 0.06
16135 H 58.98543232280129 108.58568019809847 91.43239629072364 H 0.0 **** 0.06
16136 C 156.499776200543 110.26481795602473 9.205693565621743 C 0.0 **** -0.24
16137 H 157.42374335924174 109.83265859325718 8.820227144580713 H 0.0 **** 0.06
16138 H 156.2899426985726 111.19829277168117 8.68377688088998 H 0.0 **** 0.06
16139 H 156.60968516297697 110.46105924501018 10.272521928014072 H 0.0 **** 0.06
16140 H 155.67842031012356 109.56684391845539 9.047516210970173 H 0.0 **** 0.06
16141 C 120.75299155847786 48.015224347973884 20.817571852174133 C 0.0 **** -0.24
16142 H 121.23919924142358 47.58799665952296 21.694455509319354 H 0.0 **** 0.06
16143 H 120.19286624195787 48.903514622045435 21.10963756740483 H 0.0 **** 0.06
16144 H 120.07219699957709 47.28115513113595 20.385900066030267 H 0.0 **** 0.06
16145 H 121.5077037509529 48.288230979191084 20.08029426594208 H 0.0 **** 0.06
16146 C 22.184443165243096 41.6726204730636 52.33053620169653 C 0.0 **** -0.24
16147 H 21.5679034280127 41.292774773402954 51.51674548877867 H 0.0 **** 0.06
16148 H 22.07097260278644 42.75460323941172 52.398485373247524 H 0.0 **** 0.06
16149 H 23.229729222582762 41.428490743821584 52.13788592954569 H 0.0 **** 0.06
16150 H 21.871321633715894 41.21456325407557 53.26843056629815 H 0.0 **** 0.06
16151 C 154.4488417513992 59.727048238645665 62.500377506189494 C 0.0 **** -0.24
16152 H 153.8445971093173 60.60450050968268 62.270452990793586 H 0.0 **** 0.06
16153 H 154.51250300045209 59.60397436109726 63.58174258808201 H 0.0 **** 0.06
16154 H 155.44941997682238 59.857706068701546 62.08914145387264 H 0.0 **** 0.06
16155 H 153.98690020229225 58.843038638933095 62.05977744034017 H 0.0 **** 0.06
16156 C 28.209836050157662 26.505306017528966 7.879445339351662 C 0.0 **** -0.24
16157 H 28.034701673684822 26.502802134209745 6.803368642850046 H 0.0 **** 0.06
16158 H 27.437624188303346 25.91414877556045 8.373839282312446 H 0.0 **** 0.06
16159 H 28.175880389406387 27.529565251159923 8.249297164620714 H 0.0 **** 0.06
16160 H 29.188737032829607 26.07424120266927 8.089539026168666 H 0.0 **** 0.06
16161 C 132.34908289004642 52.500126804687426 81.56071899333602 C 0.0 **** -0.24
16162 H 133.0214064408699 53.07183631636124 82.19917619695813 H 0.0 **** 0.06
16163 H 132.2376207651747 51.491676669807134 81.96025610828386 H 0.0 **** 0.06
16164 H 132.76060108306854 52.448556030113 80.55222277658538 H 0.0 **** 0.06
16165 H 131.37443261070558 52.98883480858572 81.53039206501167 H 0.0 **** 0.06
16166 C 168.8498115685019 18.988425455118346 111.04453234089259 C 0.0 **** -0.24
16167 H 168.6261678064689 20.018806338122715 111.31946332633164 H 0.0 **** 0.06
16168 H 169.71643875545192 18.64223617561032 111.60776023894427 H 0.0 **** 0.06
16169 H 169.06391169572973 18.936100616972283 109.97697315567437 H 0.0 **** 0.06
16170 H 167.99112288410842 18.358040446686488 111.27441020986619 H 0.0 **** 0.06
16171 C 22.827980110042162 118.90678865175742 176.33649838923324 C 0.0 **** -0.24
16172 H 23.01135794380282 117.99524630447793 176.90610746957103 H 0.0 **** 0.06
16173 H 23.767344991677874 119.43909454433212 176.19131441018732 H 0.0 **** 0.06
16174 H 22.130692401789148 119.54172865487486 176.88445499790274 H 0.0 **** 0.06
16175 H 22.401665835705558 118.65047204500065 175.3675643075365 H 0.0 **** 0.06
16176 C 68.09211119384179 132.20534681033558 185.1786651428577 C 0.0 **** -0.24
16177 H 69.08143658433721 131.81968722921692 184.93024543786996 H 0.0 **** 0.06
16178 H 67.90162434326373 133.11269691125779 184.6052325622 H 0.0 **** 0.06
16179 H 68.04688024014831 132.4317706084143 186.24378662897243 H 0.0 **** 0.06
16180 H 67.33894320328386 131.4563621752755 184.93437156302028 H 0.0 **** 0.06
16181 C 87.36131503868768 97.72306477823354 121.80210466065365 C 0.0 **** -0.24
16182 H 88.05212205787808 98.4766072136578 121.42642690534758 H 0.0 **** 0.06
16183 H 86.90659153449167 98.07690149175714 122.72861830596297 H 0.0 **** 0.06
16184 H 87.90197752091404 96.79647018829344 121.99317504588264 H 0.0 **** 0.06
16185 H 86.58255155157343 97.54306093278252 121.06076437521524 H 0.0 **** 0.06
16186 C 15.954084740962458 52.77042609436789 0.5812038651628981 C 0.0 **** -0.24
16187 H 16.56621675431299 51.98561109232327 0.13711134327517271 H 0.0 **** 0.06
16188 H 15.262451196368886 52.3295956138554 1.298502874314103 H 0.0 **** 0.06
16189 H 15.391858558396763 53.27845903211035 -0.20225169481862793 H 0.0 **** 0.06
16190 H 16.598063314311105 53.488176220342496 1.0897456299190225 H 0.0 **** 0.06
16191 C 18.934714109999618 147.38246681524313 125.58202470803202 C 0.0 **** -0.24
16192 H 18.789407745044485 146.5932154140462 126.31871094757439 H 0.0 **** 0.06
16193 H 19.821464431330213 147.16587161473134 124.98634043813975 H 0.0 **** 0.06
16194 H 19.065113566121283 148.33663576596476 126.09377756730707 H 0.0 **** 0.06
16195 H 18.062921970270423 147.43574369083854 124.92993314820806 H 0.0 **** 0.06
16196 C 185.4917282455395 157.49963592379598 23.45807626728339 C 0.0 **** -0.24
16197 H 184.78701755399229 158.11332721564725 24.020703358971275 H 0.0 **** 0.06
16198 H 184.94189582430334 156.76776548267108 22.865859800749774 H 0.0 **** 0.06
16199 H 186.1562081340511 156.98311062832704 24.149927720018326 H 0.0 **** 0.06
16200 H 186.07883821890596 158.13580707271927 22.796171064445048 H 0.0 **** 0.06
16201 C 101.08875553971886 182.7526291650202 135.2580822744415 C 0.0 **** -0.24
16202 H 100.42894507728367 183.38723115658826 134.6649584486163 H 0.0 **** 0.06
16203 H 101.19286547293693 181.78290439097324 134.772068559994 H 0.0 **** 0.06
16204 H 100.66297942007343 182.6166962150189 136.25243447667447 H 0.0 **** 0.06
16205 H 102.06721034520477 183.22574270191205 135.3420712145777 H 0.0 **** 0.06
16206 C 140.93842063239282 146.66226606632546 57.83168207440683 C 0.0 **** -0.24
16207 H 141.48217940549245 147.10119813144084 58.66892542732231 H 0.0 **** 0.06
16208 H 141.08292674270928 145.58234472208522 57.830580656042514 H 0.0 **** 0.06
16209 H 141.31333660721475 147.08088601513947 56.897286690639234 H 0.0 **** 0.06
16210 H 139.87679946403136 146.88772195381486 57.930137585130424 H 0.0 **** 0.06
16211 C 57.80657983099509 0.3258505949482924 153.91037174105708 C 0.0 **** -0.24
16212 H 58.08446660782489 -0.12735139332519907 152.95841466301513 H 0.0 **** 0.06
16213 H 56.94299084562854 0.9744862136369932 153.76516757687637 H 0.0 **** 0.06
16214 H 58.642795885227315 0.9129900901963879 154.2904050221388 H 0.0 **** 0.06
16215 H 57.557787611953046 -0.45760095264293454 154.62599486836237 H 0.0 **** 0.06
16216 C 120.13013384783545 180.5370705042574 51.80781617473713 C 0.0 **** -0.24
16217 H 119.16878377958227 180.03480384187884 51.910502991681255 H 0.0 **** 0.06
16218 H 120.69389063895329 180.08016405454887 50.99449819316567 H 0.0 **** 0.06
16219 H 120.691038829111 180.43962185481746 52.73705011362432 H 0.0 **** 0.06
16220 H 119.9679432876348 181.59204129057554 51.5902220831336 H 0.0 **** 0.06
16221 C 67.26449100185684 144.5278561273964 28.266141341129412 C 0.0 **** -0.24
16222 H 66.89352329132626 145.471694963566 28.66693879203902 H 0.0 **** 0.06
16223 H 66.42132469992187 143.90043916368072 27.977522390408296 H 0.0 **** 0.06
16224 H 67.854328584978 144.0170457167426 29.026606783758666 H 0.0 **** 0.06
16225 H 67.88750745002972 144.7241523467342 27.394347427232674 H 0.0 **** 0.06
16226 C 12.365759111190307 173.85485484711245 158.70775251358504 C 0.0 **** -0.24
16227 H 11.458753089092745 173.27146219484914 158.5449075334255 H 0.0 **** 0.06
16228 H 13.237358439246705 173.2468800576103 158.46240242735416 H 0.0 **** 0.06
16229 H 12.417967176839397 174.16036294671443 159.75220330391477 H 0.0 **** 0.06
16230 H 12.3484392335249 174.73842143268962 158.07080790141538 H 0.0 **** 0.06
16231 C 167.44252491251558 70.19782153992396 18.126353619596784 C 0.0 **** -0.24
16232 H 168.4076320691616 70.23898659256349 17.620672894161828 H 0.0 **** 0.06
16233 H 167.322033238308 69.2211689285202 18.596763902936942 H 0.0 **** 0.06
16234 H 166.64451068736048 70.35240642055254 17.399574977350852 H 0.0 **** 0.06
16235 H 167.39743829948296 70.97639392992541 18.887273176407888 H 0.0 **** 0.06
16236 C 16.672014051164354 42.53893674671053 152.62445021693264 C 0.0 **** -0.24
16237 H 15.83824020326864 42.93811556424731 152.04716969816985 H 0.0 **** 0.06
16238 H 16.89099909535097 41.524032093860285 152.29082094852902 H 0.0 **** 0.06
16239 H 16.406812256973062 42.524718063146906 153.6818759660917 H 0.0 **** 0.06
16240 H 17.55008543652484 43.16778557309539 152.47827514313872 H 0.0 **** 0.06
16241 C 78.94634156671975 27.566741475579875 134.9276029909774 C 0.0 **** -0.24
16242 H 80.01917561594132 27.703146693198732 135.06113600399078 H 0.0 **** 0.06
16243 H 78.69040228998608 27.71030733521883 133.87794100302267 H 0.0 **** 0.06
16244 H 78.40951593204727 28.29452708880345 135.53579185440657 H 0.0 **** 0.06
16245 H 78.66725153790651 26.558790023521397 135.23548446628018 H 0.0 **** 0.06
16246 C 100.91053501437965 16.224557822789023 153.94539910902355 C 0.0 **** -0.24
16247 H 99.93760916535435 15.79921775821066 153.69926198362666 H 0.0 **** 0.06
16248 H 100.84274611182632 16.76330081488686 154.89102802138302 H 0.0 **** 0.06
16249 H 101.21596046443595 16.91217639127035 153.15623221831288 H 0.0 **** 0.06
16250 H 101.6453937434015 15.423656421554398 154.03417966859502 H 0.0 **** 0.06
16251 C 78.82982326113655 78.33961361735547 88.44613187519867 C 0.0 **** -0.24
16252 H 77.73979030866948 78.36082995809255 88.44403292258052 H 0.0 **** 0.06
16253 H 79.20418828208604 78.84527388655061 87.55560455629988 H 0.0 **** 0.06
16254 H 79.17189810115363 77.30460646096557 88.44796412363108 H 0.0 **** 0.06
16255 H 79.20144197505101 78.8468277932208 89.33580240089792 H 0.0 **** 0.06
16256 C 129.40647678792078 138.0013148548603 88.70095854738021 C 0.0 **** -0.24
16257 H 129.1971706674446 137.76426504322785 87.65853413185629 H 0.0 **** 0.06
16258 H 130.46858072266872 137.85724665556063 88.90008403066524 H 0.0 **** 0.06
16259 H 128.82317274462912 137.3460910325981 89.34712298004293 H 0.0 **** 0.06
16260 H 129.13771069129592 139.03963950894826 88.89735885698677 H 0.0 **** 0.06
16261 C 98.4760176067782 99.50032175174736 9.551567692321896 C 0.0 **** -0.24
16262 H 97.72702492287972 100.23307005319943 9.24950763982045 H 0.0 **** 0.06
16263 H 98.2424645312153 99.13366037699389 10.551547082733975 H 0.0 **** 0.06
16264 H 99.45989505963418 99.96920569832845 9.555357173618745 H 0.0 **** 0.06
16265 H 98.47260697427164 98.66694072583358 8.848786215088467 H 0.0 **** 0.06
16266 C 33.73431661650818 14.237031723837362 41.27139200336961 C 0.0 **** -0.24
16267 H 32.79149243926916 13.720162198501136 41.451369326232225 H 0.0 **** 0.06
16268 H 33.63553524357769 15.28338610467167 41.56096431268509 H 0.0 **** 0.06
16269 H 33.98602285135259 14.174872714893262 40.21350233574009 H 0.0 **** 0.06
16270 H 34.523498212524856 13.769210581858523 41.861228580027046 H 0.0 **** 0.06
16271 C 33.04411178674509 112.35886262816702 40.820258645455965 C 0.0 **** -0.24
16272 H 32.57208726305964 113.17119170846998 40.26781527998554 H 0.0 **** 0.06
16273 H 34.1243309328008 112.40521951459657 40.681402591310245 H 0.0 **** 0.06
16274 H 32.6699694910382 111.40320895168425 40.45063856992192 H 0.0 **** 0.06
16275 H 32.808465155652726 112.45455348329945 41.88026821794605 H 0.0 **** 0.06
16276 C 117.60606111603755 34.196544772621564 133.44257762547812 C 0.0 **** -0.24
16277 H 117.97434498122192 35.202708062877235 133.6432011405518 H 0.0 **** 0.06
16278 H 116.54820806483235 34.13871544422415 133.70178042381553 H 0.0 **** 0.06
16279 H 118.16669998177167 33.478282420320824 134.04149134112873 H 0.0 **** 0.06
16280 H 117.73474226576622 33.966856116912766 132.38472713848876 H 0.0 **** 0.06
16281 C 181.8003294108275 159.88656150800455 22.88829146060084 C 0.0 **** -0.24
16282 H 181.5896708536985 159.8828616211078 21.818329931521248 H 0.0 **** 0.06
16283 H 182.11313065559304 158.8908163354185 23.20055939872077 H 0.0 **** 0.06
16284 H 180.90152910433125 160.1738926932596 23.434670617177233 H 0.0 **** 0.06
16285 H 182.59740370154583 160.60056899767426 23.09849201496553 H 0.0 **** 0.06
16286 C 110.91005827674591 136.97442450427303 98.29138426924702 C 0.0 **** -0.24
16287 H 111.09993929330373 135.90211220522025 98.32757645394013 H 0.0 **** 0.06
16288 H 109.9240329340184 137.18297721398181 98.70778213107523 H 0.0 **** 0.06
16289 H 110.94894103962484 137.3160654428762 97.25662730065063 H 0.0 **** 0.06
16290 H 111.66902204500023 137.49620534736232 98.87527992859022 H 0.0 **** 0.06
16291 C 147.59336834352263 18.61059348468941 40.938813150934536 C 0.0 **** -0.24
16292 H 147.88799488557882 18.66708804045986 41.986735347463934 H 0.0 **** 0.06
16293 H 146.9187144121986 17.766460230016037 40.79717107879581 H 0.0 **** 0.06
16294 H 148.4793476755998 18.476239755126116 40.31982202521651 H 0.0 **** 0.06
16295 H 147.08702316279317 19.53244394228812 40.65372081604721 H 0.0 **** 0.06
16296 C 161.02284496570303 176.415327830117 109.49625345578686 C 0.0 **** -0.24
16297 H 159.9789014558973 176.7234703454697 109.55977919208193 H 0.0 **** 0.06
16298 H 161.65913194183437 177.19803556296728 109.9097602411179 H 0.0 **** 0.06
16299 H 161.28784033868104 176.24410425709772 108.45326961837084 H 0.0 **** 0.06
16300 H 161.16368888534691 175.49481315939872 110.06315830315135 H 0.0 **** 0.06
16301 C 35.007196272715646 154.31123568804628 127.98803383984313 C 0.0 **** -0.24
16302 H 34.4490456853286 155.14320652258505 128.4184659915016 H 0.0 **** 0.06
16303 H 34.77971880150187 154.2330459285514 126.92477482545564 H 0.0 **** 0.06
16304 H 34.72610146768125 153.38605256675146 128.49012072510624 H 0.0 **** 0.06
16305 H 36.07594837793107 154.48577400774312 128.11855861161337 H 0.0 **** 0.06
16306 C 93.2864301089989 119.35934972384796 21.124728158399222 C 0.0 **** -0.24
16307 H 92.93269915668333 120.39001053000855 21.16166181903759 H 0.0 **** 0.06
16308 H 94.37670858711817 119.35049476988387 21.09694634545471 H 0.0 **** 0.06
16309 H 92.89561390128029 118.87354430892272 20.23058546445685 H 0.0 **** 0.06
16310 H 92.9398001274983 118.82476244511626 22.009276894760887 H 0.0 **** 0.06
16311 C 116.24343838987214 5.705657244668004 107.42622379334641 C 0.0 **** -0.24
16312 H 116.88191152349681 4.885418504137959 107.09971528912526 H 0.0 **** 0.06
16313 H 115.44507996767815 5.857555733542654 106.69881051430663 H 0.0 **** 0.06
16314 H 116.83628930820895 6.616391641277346 107.51162293363 H 0.0 **** 0.06
16315 H 115.80903485981624 5.4636945385952345 108.39640367101644 H 0.0 **** 0.06
16316 C 137.8896127572998 84.97410344759754 106.12866612502906 C 0.0 **** -0.24
16317 H 138.4994494124942 84.07238440744271 106.17004674163475 H 0.0 **** 0.06
16318 H 137.02069092134144 84.79675769222182 105.49413108721568 H 0.0 **** 0.06
16319 H 138.4796184589947 85.7930011347532 105.71622069749735 H 0.0 **** 0.06
16320 H 137.55912346141622 85.23556947285311 107.13390973041724 H 0.0 **** 0.06
16321 C 95.95127124274308 97.54270621559213 7.320604498072157 C 0.0 **** -0.24
16322 H 95.04578243846618 97.38734097864948 7.906528565888891 H 0.0 **** 0.06
16323 H 95.73733279742538 97.36418732616458 6.2665851798681445 H 0.0 **** 0.06
16324 H 96.72461824005359 96.85211778112246 7.657342386913854 H 0.0 **** 0.06
16325 H 96.29742629043574 98.56792244327498 7.452626231492673 H 0.0 **** 0.06
16326 C 25.137126545206115 148.06978545018356 139.2610158725925 C 0.0 **** -0.24
16327 H 24.87982762778799 147.1080190316942 139.70489985490656 H 0.0 **** 0.06
16328 H 26.196525452121932 148.2703919015407 139.41870339403823 H 0.0 **** 0.06
16329 H 24.544885329519786 148.8557128938433 139.72970101087964 H 0.0 **** 0.06
16330 H 24.926792337365583 148.04456028912594 138.1915105707281 H 0.0 **** 0.06
16331 C 48.90440749314129 124.65558460742729 101.72223377762047 C 0.0 **** -0.24
16332 H 49.38511061701604 124.79116080208028 102.69175015081659 H 0.0 **** 0.06
16333 H 49.234389432332875 125.44136721378085 101.0417104407655 H 0.0 **** 0.06
16334 H 47.82331871009848 124.70891391213955 101.84287516126959 H 0.0 **** 0.06
16335 H 49.17777230532735 123.68250277745027 101.31422790212751 H 0.0 **** 0.06
16336 C 4.564302222732124 141.5395989030789 63.47681084445183 C 0.0 **** -0.24
16337 H 5.518309454483415 141.5667917154703 64.0035642229722 H 0.0 **** 0.06
16338 H 4.201445884996531 140.51237692544038 63.43373341469949 H 0.0 **** 0.06
16339 H 4.698280161569301 141.92081326613555 62.463966873315925 H 0.0 **** 0.06
16340 H 3.8394982794293924 142.15927089633516 64.00490196399853 H 0.0 **** 0.06
16341 C 155.13618150225187 91.77515009260287 118.54057638713142 C 0.0 **** -0.24
16342 H 154.8246635636991 91.25811433400543 119.44843649381654 H 0.0 **** 0.06
16343 H 154.42179028862728 92.56497225244857 118.30913416114218 H 0.0 **** 0.06
16344 H 155.17534361965517 91.0656339245212 117.71382642014125 H 0.0 **** 0.06
16345 H 156.12430686896678 92.21172639673125 118.69194612674168 H 0.0 **** 0.06
16346 C 128.10552716565286 90.24370257384203 96.62440114034196 C 0.0 **** -0.24
16347 H 127.10841906903867 90.68461585873683 96.61555257816933 H 0.0 **** 0.06
16348 H 128.60406456032365 90.45391094664313 95.67755569490272 H 0.0 **** 0.06
16349 H 128.0243867101978 89.16578018941027 96.76140443335605 H 0.0 **** 0.06
16350 H 128.68409962855088 90.67119139738844 97.44261232700099 H 0.0 **** 0.06
16351 C 29.668121550033845 69.35038641144911 22.93552499068626 C 0.0 **** -0.24
16352 H 30.42605606257237 70.03945424617558 23.31059858742958 H 0.0 **** 0.06
16353 H 30.102350350855687 68.7192049989884 22.15989057456136 H 0.0 **** 0.06
16354 H 28.835963612839265 69.91816244221411 22.520207171451958 H 0.0 **** 0.06
16355 H 29.309679900048792 68.7260074992999 23.754388190330403 H 0.0 **** 0.06
16356 C 28.37227074922808 147.4946791868082 49.65747104957546 C 0.0 **** -0.24
16357 H 28.05610830834651 146.48386883867772 49.91782878121546 H 0.0 **** 0.06
16358 H 27.846793988128127 147.81906056145948 48.75964966199655 H 0.0 **** 0.06
16359 H 29.446597879621322 147.5023256267099 49.47293347410914 H 0.0 **** 0.06
16360 H 28.140142787779013 148.17063015434152 50.48029013987633 H 0.0 **** 0.06
16361 C 15.391349894832508 172.55151662934895 89.93745701331171 C 0.0 **** -0.24
16362 H 15.489601229705777 171.49965731042036 89.66804649944929 H 0.0 **** 0.06
16363 H 16.378585464203603 172.96786080073696 90.13951849436266 H 0.0 **** 0.06
16364 H 14.77007564250598 172.6418131980022 90.82821465909045 H 0.0 **** 0.06
16365 H 14.928946024224267 173.09456076974038 89.1140664314694 H 0.0 **** 0.06
16366 C 108.84948180782628 98.84869163802023 184.94922930334565 C 0.0 **** -0.24
16367 H 108.73356159505632 99.58222584729862 184.150958392416 H 0.0 **** 0.06
16368 H 109.77577234336367 98.2934936801978 184.80007353034708 H 0.0 **** 0.06
16369 H 108.00513148750058 98.15867961193607 184.93337581349812 H 0.0 **** 0.06
16370 H 108.88224087708834 99.36059689335195 185.91065023096314 H 0.0 **** 0.06
16371 C 173.9795840443824 13.195557715535529 13.020874227565095 C 0.0 **** -0.24
16372 H 174.37651985898574 14.208555023151803 12.964254901915446 H 0.0 **** 0.06
16373 H 173.9743655143087 12.75166038314677 12.025057826919245 H 0.0 **** 0.06
16374 H 172.96300286978823 13.225594539960639 13.411703912700808 H 0.0 **** 0.06
16375 H 174.60515414099245 12.597060501524084 13.682783958101197 H 0.0 **** 0.06
16376 C 159.37996649298628 87.96143406553803 142.2961222844404 C 0.0 **** -0.24
16377 H 159.62522856024663 87.59697636550801 143.2935953228501 H 0.0 **** 0.06
16378 H 159.86941071946904 88.9212144824743 142.12988068230214 H 0.0 **** 0.06
16379 H 158.3001883611454 88.08370428741524 142.20971309582126 H 0.0 **** 0.06
16380 H 159.72598625204108 87.24403316148398 141.55155418878434 H 0.0 **** 0.06
16381 C 59.00461084956336 50.08082142329414 6.112754105533099 C 0.0 **** -0.24
16382 H 58.676204006615805 49.30639521197233 5.419820239204398 H 0.0 **** 0.06
16383 H 59.4774117436162 49.61640266130159 6.978035497477009 H 0.0 **** 0.06
16384 H 58.14285368145295 50.66468492841463 6.437791611444652 H 0.0 **** 0.06
16385 H 59.719380675689266 50.73478621689756 5.614254875807092 H 0.0 **** 0.06
16386 C 177.34238855015002 28.235291971338313 155.97780964787495 C 0.0 **** -0.24
16387 H 177.30613053967934 28.242097562870555 154.88851336150225 H 0.0 **** 0.06
16388 H 178.30677601923696 27.846175253982068 156.3064042092553 H 0.0 **** 0.06
16389 H 176.54390022101816 27.602581421128406 156.36428615500122 H 0.0 **** 0.06
16390 H 177.21357111969792 29.25087703996593 156.3519705741829 H 0.0 **** 0.06
16391 C 106.73348733535643 111.12739169236723 62.47152063376281 C 0.0 **** -0.24
16392 H 107.12754924808642 112.05083084438247 62.89468334443633 H 0.0 **** 0.06
16393 H 106.93886601696242 111.10129630067509 61.40085634575202 H 0.0 **** 0.06
16394 H 105.65659861646562 111.08305221002435 62.636263092738034 H 0.0 **** 0.06
16395 H 107.21093545991143 110.274387414387 62.95427975212482 H 0.0 **** 0.06
16396 C 15.141499197115166 59.04657595890957 21.080098918223257 C 0.0 **** -0.24
16397 H 14.210276088280722 58.48090646381364 21.060378537806287 H 0.0 **** 0.06
16398 H 15.202725574522844 59.67494394782132 20.19065054745272 H 0.0 **** 0.06
16399 H 15.985229638662247 58.35700524707053 21.096052828918403 H 0.0 **** 0.06
16400 H 15.166648594007796 59.673921988171884 21.971185801654315 H 0.0 **** 0.06
16401 C 118.38696796664398 33.35519070999544 143.69150450689554 C 0.0 **** -0.24
16402 H 119.37409982344401 33.24385731952236 144.14125105913675 H 0.0 **** 0.06
16403 H 117.73791913947328 32.550284615495855 144.03747730977452 H 0.0 **** 0.06
16404 H 118.47537067570296 33.30978817207961 142.60597148682325 H 0.0 **** 0.06
16405 H 117.96232021027951 34.31644294749685 143.98200372796435 H 0.0 **** 0.06
16406 C 46.10087530923144 8.408468279392793 139.42430024435993 C 0.0 **** -0.24
16407 H 45.879154213770164 9.018618806370426 140.29992313972963 H 0.0 **** 0.06
16408 H 45.9659897184018 7.356087387736551 139.67162931476952 H 0.0 **** 0.06
16409 H 47.13128572699105 8.580175743728546 139.11357806481368 H 0.0 **** 0.06
16410 H 45.42647515717414 8.680557703401774 138.61163415521634 H 0.0 **** 0.06
16411 C 182.7558435964857 68.2721630854751 59.11908277460152 C 0.0 **** -0.24
16412 H 182.65091894522612 69.29624998015495 59.47675749113728 H 0.0 **** 0.06
16413 H 183.72426964679153 68.15437210861936 58.6328733191104 H 0.0 **** 0.06
16414 H 181.96086434912172 68.0538221905775 58.40542695101881 H 0.0 **** 0.06
16415 H 182.6868454359763 67.58391638905906 59.96210301592514 H 0.0 **** 0.06
16416 C 57.68694235210765 157.1894366004339 1.95651500994029 C 0.0 **** -0.24
16417 H 57.49386807578732 158.20094024854865 2.3136957124689275 H 0.0 **** 0.06
16418 H 57.84310971720484 156.527170337957 2.8091670854095696 H 0.0 **** 0.06
16419 H 58.57755394002959 157.18981512179022 1.3282322590153228 H 0.0 **** 0.06
16420 H 56.83285082103866 156.84071163258594 1.3759929033720084 H 0.0 **** 0.06
16421 C 160.55274643451583 176.31493153049536 98.6087379460131 C 0.0 **** -0.24
16422 H 160.19787739968552 176.9386789612327 97.78795326762116 H 0.0 **** 0.06
16423 H 160.03992669578972 176.5990527780104 99.52793945210999 H 0.0 **** 0.06
16424 H 161.6264177973182 176.4549528621309 98.73357460371551 H 0.0 **** 0.06
16425 H 160.34597127757047 175.26820224060617 98.38532756906204 H 0.0 **** 0.06
16426 C 38.9364673846178 120.06989691254296 73.02536786878986 C 0.0 **** -0.24
16427 H 38.40422449737332 120.5909618824013 72.22936901396497 H 0.0 **** 0.06
16428 H 39.79875764067111 119.54989701690641 72.60618410888907 H 0.0 **** 0.06
16429 H 38.26840326702978 119.34774294314184 73.49553311793647 H 0.0 **** 0.06
16430 H 39.2730034809901 120.79216568944798 73.76974052790622 H 0.0 **** 0.06
16431 C 127.90771778247252 86.7605187294818 130.77127555199036 C 0.0 **** -0.24
16432 H 128.1186356929797 87.70176732417532 131.27725484051473 H 0.0 **** 0.06
16433 H 127.96622755952983 86.9058731137779 129.69260457727637 H 0.0 **** 0.06
16434 H 126.90644284000176 86.42090659658392 131.038817110837 H 0.0 **** 0.06
16435 H 128.63855661531443 86.01222565242666 131.0782388058451 H 0.0 **** 0.06
16436 C 54.78361462626053 156.418186715416 132.63527415492877 C 0.0 **** -0.24
16437 H 55.80248069324135 156.77357400254917 132.78763610743556 H 0.0 **** 0.06
16438 H 54.458369635200924 155.86065804963675 133.51285481386265 H 0.0 **** 0.06
16439 H 54.752840304044994 155.77013503818466 131.75952058112603 H 0.0 **** 0.06
16440 H 54.121787382021054 157.2701321093514 132.4797103227358 H 0.0 **** 0.06
16441 C 49.61023516757113 45.90123808998871 172.38194405058528 C 0.0 **** -0.24
16442 H 50.330452639483056 45.35122950095203 172.9873213697273 H 0.0 **** 0.06
16443 H 48.72515950234951 46.11883576394456 172.97965190471714 H 0.0 **** 0.06
16444 H 49.32788194337196 45.300469843772134 171.51790150971726 H 0.0 **** 0.06
16445 H 50.05857596853899 46.835906799078856 172.04412855466353 H 0.0 **** 0.06
16446 C 39.629950549785235 61.91205776487642 56.98494403399019 C 0.0 **** -0.24
16447 H 39.84284855313558 62.91374332886063 57.35830154915823 H 0.0 **** 0.06
16448 H 40.51960086148404 61.508355340023996 56.500714688760695 H 0.0 **** 0.06
16449 H 38.813315069495616 61.959217157814976 56.26414804266531 H 0.0 **** 0.06
16450 H 39.344365694214105 61.267838944256624 57.816809874374 H 0.0 **** 0.06
16451 C 125.98551922668683 39.97822296280893 134.35356940836857 C 0.0 **** -0.24
16452 H 126.98256725247334 40.36833942007445 134.14693986244794 H 0.0 **** 0.06
16453 H 125.26332252005467 40.464569405072936 133.69743723356527 H 0.0 **** 0.06
16454 H 125.72491149295787 40.17744746079636 135.392584109141 H 0.0 **** 0.06
16455 H 125.97270193784821 38.90300034790657 134.17565818263768 H 0.0 **** 0.06
16456 C 114.27899833492899 10.362873173905548 79.4641558700146 C 0.0 **** -0.24
16457 H 115.3123258358928 10.708067928458497 79.4760384120879 H 0.0 **** 0.06
16458 H 113.78888288244286 10.652998258210772 80.39403686546348 H 0.0 **** 0.06
16459 H 114.25875037342553 9.27761246173064 79.3652945189665 H 0.0 **** 0.06
16460 H 113.75531096744425 10.814355630497985 78.62093672857159 H 0.0 **** 0.06
16461 C 153.14682292056062 32.641530998924736 155.16280347738734 C 0.0 **** -0.24
16462 H 152.47741994618445 33.133409390332886 155.86896612452927 H 0.0 **** 0.06
16463 H 152.91915253562308 32.979310396128696 154.15175964116347 H 0.0 **** 0.06
16464 H 153.00924419322098 31.56178911639381 155.22489161673784 H 0.0 **** 0.06
16465 H 154.17914708429282 32.89198701474008 155.40626180695912 H 0.0 **** 0.06
16466 C 173.958534902324 7.595622863107707 95.94267673745331 C 0.0 **** -0.24
16467 H 174.10682801532903 7.754708781141467 97.01105363818662 H 0.0 **** 0.06
16468 H 172.9093113520768 7.757022888835152 95.69329878850807 H 0.0 **** 0.06
16469 H 174.24083506338218 6.574909638284971 95.68474167895944 H 0.0 **** 0.06
16470 H 174.57774587395738 8.295786058867286 95.38242445403112 H 0.0 **** 0.06
16471 C 178.73353014026634 180.70859890467472 111.1394456167673 C 0.0 **** -0.24
16472 H 178.79932748567867 179.7718412822012 111.69219077616508 H 0.0 **** 0.06
16473 H 177.73934820831423 181.13617451215205 111.26640911710594 H 0.0 **** 0.06
16474 H 178.9151835031155 180.5194315383229 110.08185869079396 H 0.0 **** 0.06
16475 H 179.48053846663305 181.40600840065497 111.51752351846436 H 0.0 **** 0.06
16476 C 82.79148652503761 74.6780985580289 5.192904202834086 C 0.0 **** -0.24
16477 H 83.46657494798416 74.09911873079913 5.823326562297467 H 0.0 **** 0.06
16478 H 83.06645830386037 74.54163697055124 4.146377971681375 H 0.0 **** 0.06
16479 H 82.86654555636909 75.7337883382667 5.454024094438154 H 0.0 **** 0.06
16480 H 81.76826254868331 74.33727274094639 5.348161405228723 H 0.0 **** 0.06
16481 C 130.33577438508655 175.58277229421202 1.6865396957712164 C 0.0 **** -0.24
16482 H 129.32088895013703 175.47455018329762 2.0657689510083017 H 0.0 **** 0.06
16483 H 130.98563528567945 175.94456711450457 2.4840487609998405 H 0.0 **** 0.06
16484 H 130.34110828495562 176.29557742470854 0.8619957272884804 H 0.0 **** 0.06
16485 H 130.69676637148945 174.61653769636473 1.3338105407002416 H 0.0 **** 0.06
16486 C 140.21696262377992 145.43000768826124 148.02912295898994 C 0.0 **** -0.24
16487 H 140.91747972906086 145.48171333118566 147.19548653885008 H 0.0 **** 0.06
16488 H 140.4855272490277 144.5962408697192 148.6773029347758 H 0.0 **** 0.06
16489 H 139.20764639384322 145.2830422172482 147.6464543971693 H 0.0 **** 0.06
16490 H 140.259178196424 146.3600553429721 148.5970662651158 H 0.0 **** 0.06
16491 C 76.7296983746753 82.06178820382962 181.6643910190569 C 0.0 **** -0.24
16492 H 76.07815546124807 82.10875020490226 182.5366603309244 H 0.0 **** 0.06
16493 H 77.77084666678442 82.07325204341458 181.9875213149553 H 0.0 **** 0.06
16494 H 76.53870853585968 82.92194601937985 181.02166338600478 H 0.0 **** 0.06
16495 H 76.53020331033497 81.14367936887044 181.11175076494015 H 0.0 **** 0.06
16496 C 57.93871196790428 4.58618716385763 125.24791593750889 C 0.0 **** -0.24
16497 H 58.16162391933619 5.286083595773789 124.44274787849604 H 0.0 **** 0.06
16498 H 57.97272341851277 5.109138944012386 126.20374177072925 H 0.0 **** 0.06
16499 H 58.67596823703917 3.7837054145075513 125.24534987551509 H 0.0 **** 0.06
16500 H 56.94421393585401 4.166102027315446 125.09847531782425 H 0.0 **** 0.06
16501 C 59.832166445677814 72.78752936584522 60.32968864621975 C 0.0 **** -0.24
16502 H 58.899921003557765 72.23871660692487 60.46342852819134 H 0.0 **** 0.06
16503 H 59.929913592171104 73.0895760773999 59.28683312010176 H 0.0 **** 0.06
16504 H 60.67219108001957 72.1485637856099 60.603480507733806 H 0.0 **** 0.06
16505 H 59.82695114275492 73.67252287462418 60.96617797025874 H 0.0 **** 0.06
16506 C 101.54582747249566 144.01692669824234 7.479310073427484 C 0.0 **** -0.24
16507 H 101.83497844014158 143.93358051598844 8.52737424945127 H 0.0 **** 0.06
16508 H 100.56656525081678 143.55936947157917 7.336068086676846 H 0.0 **** 0.06
16509 H 102.28071677985946 143.50377630176718 6.859108704439905 H 0.0 **** 0.06
16510 H 101.50133548897583 145.06836099622035 7.196123326851534 H 0.0 **** 0.06
16511 C 35.008455006343866 98.2067810741032 45.01623515270032 C 0.0 **** -0.24
16512 H 35.138272150381226 97.5657047862447 45.88809698941856 H 0.0 **** 0.06
16513 H 34.02616445070066 98.67710517094734 45.05370322774667 H 0.0 **** 0.06
16514 H 35.09110422527738 97.60765003136602 44.109316485942145 H 0.0 **** 0.06
16515 H 35.78125741361515 98.97633269114307 45.01396705304586 H 0.0 **** 0.06
16516 C 180.37384449132333 1.9679844161962023 145.1619891604457 C 0.0 **** -0.24
16517 H 179.37658848451758 1.6698863490767621 145.48746787334795 H 0.0 **** 0.06
16518 H 180.5576310174204 3.0013178310429964 145.45532670911348 H 0.0 **** 0.06
16519 H 180.44224530244344 1.8797856982089343 144.07764019329295 H 0.0 **** 0.06
16520 H 181.1164267497746 1.319195993018809 145.6266562872862 H 0.0 **** 0.06
16521 C 182.1156310172753 137.2514550280169 174.2815019041793 C 0.0 **** -0.24
16522 H 182.3476770083452 137.84513903212888 173.3973162199348 H 0.0 **** 0.06
16523 H 181.39566753058597 136.4760244220705 174.01981637373143 H 0.0 **** 0.06
16524 H 181.69076923305425 137.89742848394843 175.05097195917847 H 0.0 **** 0.06
16525 H 183.02762501456567 136.78929166221292 174.65754884507643 H 0.0 **** 0.06
16526 C 183.68226398096652 83.12439856921003 45.387940915506505 C 0.0 **** -0.24
16527 H 183.40162777376952 82.20096793541177 45.89315523923071 H 0.0 **** 0.06
16528 H 184.7653557233763 83.23950993037238 45.417283597172556 H 0.0 **** 0.06
16529 H 183.21237990434122 83.97046846892579 45.890093341931845 H 0.0 **** 0.06
16530 H 183.34844000947044 83.08599673149638 44.3511467160436 H 0.0 **** 0.06
16531 C 30.49156044852954 108.44287415842196 172.63786559276906 C 0.0 **** -0.24
16532 H 30.679459093805974 108.92663332186002 173.5955343734502 H 0.0 **** 0.06
16533 H 29.563910970702736 107.8719526219178 172.69613610517945 H 0.0 **** 0.06
16534 H 31.317406007927318 107.77087525879533 172.4018931718889 H 0.0 **** 0.06
16535 H 30.404161419162463 109.19883201309777 171.85809160530957 H 0.0 **** 0.06
16536 C 2.409229664842144 10.665329811202291 159.3731674717821 C 0.0 **** -0.24
16537 H 2.3661792993407573 9.861005148987964 160.10643401725093 H 0.0 **** 0.06
16538 H 3.2065808599322096 10.460606577825864 158.65704255790774 H 0.0 **** 0.06
16539 H 2.610506268860213 11.609328890981075 159.88050547786392 H 0.0 **** 0.06
16540 H 1.4573261203611168 10.73101979778432 158.84838487413396 H 0.0 **** 0.06
16541 C 126.40270116416518 20.25195659501931 76.0151516648978 C 0.0 **** -0.24
16542 H 125.86648903054324 20.355298349700817 76.95884674757129 H 0.0 **** 0.06
16543 H 125.69214090298864 20.047496306647183 75.21444543773164 H 0.0 **** 0.06
16544 H 127.11331213222134 19.429146245293424 76.08905381289736 H 0.0 **** 0.06
16545 H 126.93798073980115 21.176703797559995 75.79900412750796 H 0.0 **** 0.06
16546 C 8.145636283934977 66.30257459165203 123.26517697176816 C 0.0 **** -0.24
16547 H 7.179957797668408 66.69699654826022 123.58086469109647 H 0.0 **** 0.06
16548 H 8.542880218751236 65.64828377868791 124.04142123761018 H 0.0 **** 0.06
16549 H 8.836869429900304 67.12873022835245 123.0962894831644 H 0.0 **** 0.06
16550 H 8.022339546827823 65.73807511837006 122.34088447239795 H 0.0 **** 0.06
16551 C 162.7330676569734 164.13988881115824 143.11017671949375 C 0.0 **** -0.24
16552 H 163.17943966779552 163.8564463952409 142.15692450083998 H 0.0 **** 0.06
16553 H 162.8382372303243 165.2148978394323 143.25394491906383 H 0.0 **** 0.06
16554 H 163.23815007226773 163.6124019303288 143.91869368378255 H 0.0 **** 0.06
16555 H 161.6755458252253 163.87386683360668 143.10748016644305 H 0.0 **** 0.06
16556 C 98.03373405486305 157.03763874060184 15.538629402593841 C 0.0 **** -0.24
16557 H 99.09695806287367 157.0215280153659 15.300561137734633 H 0.0 **** 0.06
16558 H 97.8232744615484 157.87432289911158 16.204936198713426 H 0.0 **** 0.06
16559 H 97.75702852445376 156.1036712910681 16.028743919702777 H 0.0 **** 0.06
16560 H 97.457938700188 157.15020123677 14.619787323350437 H 0.0 **** 0.06
16561 C 18.067739251969655 181.72334314995595 139.51679785858323 C 0.0 **** -0.24
16562 H 17.98451360020426 180.99948993433762 138.7059345017525 H 0.0 **** 0.06
16563 H 19.04414648494098 181.6249804756269 139.9924659074233 H 0.0 **** 0.06
16564 H 17.285085732665685 181.53713787804432 140.2511631555181 H 0.0 **** 0.06
16565 H 17.957855527949413 182.73024997456235 139.11611402190738 H 0.0 **** 0.06
16566 C 12.79438426135232 149.9602495447417 162.02468078003338 C 0.0 **** -0.24
16567 H 13.59385926943159 149.4298359628878 161.50852239580527 H 0.0 **** 0.06
16568 H 12.140240074096681 149.24144834211606 162.51844548468395 H 0.0 **** 0.06
16569 H 12.218693759299185 150.53994735772207 161.30349131680305 H 0.0 **** 0.06
16570 H 13.225214988462653 150.63100021973 162.76877002649533 H 0.0 **** 0.06
16571 C 46.614447956060616 67.19200211163295 57.266828050081656 C 0.0 **** -0.24
16572 H 47.19886642792851 67.36559593091249 56.36295603880606 H 0.0 **** 0.06
16573 H 45.602621391494466 67.57042028431349 57.12247762115669 H 0.0 **** 0.06
16574 H 47.08074219458335 67.709804357527 58.1050153087661 H 0.0 **** 0.06
16575 H 46.577254603879425 66.12273011176029 57.474663089472074 H 0.0 **** 0.06
16576 C 33.27146732696076 179.98919260430907 60.18758653670554 C 0.0 **** -0.24
16577 H 32.40348550463409 179.5618652304375 60.688235314786624 H 0.0 **** 0.06
16578 H 33.604591498965874 180.87436626186323 60.72934131772409 H 0.0 **** 0.06
16579 H 33.00308619295913 180.26556417513217 59.16820207957535 H 0.0 **** 0.06
16580 H 34.07644594033491 179.2536491787086 60.16503217092078 H 0.0 **** 0.06
16581 C 27.941933386432197 16.0674295310219 144.0939955239372 C 0.0 **** -0.24
16582 H 28.210237911238494 15.948140263411887 143.04455467185647 H 0.0 **** 0.06
16583 H 26.968043830682063 16.551641048284417 144.16716455602634 H 0.0 **** 0.06
16584 H 28.691787840023437 16.68245584505909 144.5927011715645 H 0.0 **** 0.06
16585 H 27.899059922885584 15.088501266365064 144.5716634912814 H 0.0 **** 0.06
16586 C 47.6273066286123 27.172779809305553 135.74098298613677 C 0.0 **** -0.24
16587 H 47.09098014635333 26.424818515616096 135.15663533107937 H 0.0 **** 0.06
16588 H 47.720304511006134 26.831091713189664 136.77138677983834 H 0.0 **** 0.06
16589 H 47.07838626160799 28.114428484343136 135.7171590778612 H 0.0 **** 0.06
16590 H 48.62085507481672 27.320421718868374 135.31526034629474 H 0.0 **** 0.06
16591 C 99.86547395053812 113.66552871702616 182.90279995588793 C 0.0 **** -0.24
16592 H 98.99921137230395 113.73098008606179 183.55987193516148 H 0.0 **** 0.06
16593 H 100.17938550335542 114.6679065148105 182.61357751156567 H 0.0 **** 0.06
16594 H 99.60277156490112 113.0950997734149 182.0115039009212 H 0.0 **** 0.06
16595 H 100.68139387964492 113.16583933921534 183.42615126055793 H 0.0 **** 0.06
16596 C 141.05896699722757 15.276666835141313 37.78958109702211 C 0.0 **** -0.24
16597 H 141.43781769716895 16.286498080662852 37.945277441764915 H 0.0 **** 0.06
16598 H 141.30017796230464 14.660735652057944 38.6554063618085 H 0.0 **** 0.06
16599 H 141.52028871504348 14.849215642728495 36.89964845944519 H 0.0 **** 0.06
16600 H 139.97811705037702 15.31097844710542 37.65692574679508 H 0.0 **** 0.06
16601 C 13.213347510507958 144.0019183748375 107.93600838865531 C 0.0 **** -0.24
16602 H 13.718026692615979 144.93380323868658 108.18768446241118 H 0.0 **** 0.06
16603 H 12.210798023048483 144.00482903071298 108.36459377540255 H 0.0 **** 0.06
16604 H 13.778431173078843 143.16131972940855 108.33920281376864 H 0.0 **** 0.06
16605 H 13.144866004713123 143.90749251052455 106.85196991210826 H 0.0 **** 0.06
16606 C 20.18548171831401 130.63898718220491 36.78574923334034 C 0.0 **** -0.24
16607 H 20.50873579585152 130.32939564075923 35.79132112138117 H 0.0 **** 0.06
16608 H 20.409526513048775 129.8481623461164 37.50257515701449 H 0.0 **** 0.06
16609 H 19.111852786895554 130.82720841387078 36.775597807558455 H 0.0 **** 0.06
16610 H 20.711023060195316 131.54888377031824 37.07174364879474 H 0.0 **** 0.06
16611 C 36.64110081440879 121.60811665776772 7.052583158426756 C 0.0 **** -0.24
16612 H 37.015216307166185 120.59494741984092 6.90432640368158 H 0.0 **** 0.06
16613 H 37.43868651316356 122.23397287635238 7.453432781523873 H 0.0 **** 0.06
16614 H 35.80685640559193 121.5883537018697 7.753901957286189 H 0.0 **** 0.06
16615 H 36.30480033888881 122.01390335961317 6.098643172055688 H 0.0 **** 0.06
16616 C 16.62446927409502 60.2846117106115 48.777397460113946 C 0.0 **** -0.24
16617 H 16.14207135480771 59.5067711024264 48.18662291281311 H 0.0 **** 0.06
16618 H 16.086645365667493 60.41359607954362 49.71785208144638 H 0.0 **** 0.06
16619 H 16.614211884926732 61.223025382005176 48.22146403587706 H 0.0 **** 0.06
16620 H 17.65496744275677 59.996744567473115 48.98402848486717 H 0.0 **** 0.06
16621 C 132.23268340095342 143.9879131306298 157.83317664101585 C 0.0 **** -0.24
16622 H 131.4671604806232 144.67469159444252 157.4735680534045 H 0.0 **** 0.06
16623 H 133.02825490737786 144.55292032098382 158.3192838568284 H 0.0 **** 0.06
16624 H 132.64495697154 143.4293761421717 156.99216158356984 H 0.0 **** 0.06
16625 H 131.79070411838285 143.29344074935358 158.5483135595709 H 0.0 **** 0.06
16626 C 112.32509407388797 157.21047377790478 22.49569848205624 C 0.0 **** -0.24
16627 H 112.31193484138642 157.00492645919087 21.42570807189935 H 0.0 **** 0.06
16628 H 112.28069693396502 156.270199775952 23.04654155712035 H 0.0 **** 0.06
16629 H 111.46441053127207 157.82627783272483 22.757527777048892 H 0.0 **** 0.06
16630 H 113.24208418234188 157.7398421103128 22.75288645172074 H 0.0 **** 0.06
16631 C 132.50894821582045 116.0012545567277 38.59002861853958 C 0.0 **** -0.24
16632 H 133.00375262747627 116.96516705243977 38.47058967572502 H 0.0 **** 0.06
16633 H 131.43757805431505 116.12053616361942 38.43197415846524 H 0.0 **** 0.06
16634 H 132.68851646712938 115.62374981843948 39.597576048443955 H 0.0 **** 0.06
16635 H 132.90792271816883 115.29469305260147 37.8620557091395 H 0.0 **** 0.06
16636 C 47.25789765829603 118.91157490599953 133.74875464973633 C 0.0 **** -0.24
16637 H 47.79372883380893 119.36482687239983 134.58311067947517 H 0.0 **** 0.06
16638 H 46.243078096612976 119.30940552917009 133.70986437158524 H 0.0 **** 0.06
16639 H 47.22031078260301 117.83167530159615 133.8858472903226 H 0.0 **** 0.06
16640 H 47.77405961997954 119.14250204895889 132.81680998863106 H 0.0 **** 0.06
16641 C 153.063090591881 116.29680597185548 79.87775244567689 C 0.0 **** -0.24
16642 H 152.16487191957822 116.90798096109985 79.78001935764115 H 0.0 **** 0.06
16643 H 152.84440286218273 115.42737667502537 80.49752960871137 H 0.0 **** 0.06
16644 H 153.85381993035503 116.88629262573961 80.34219509025155 H 0.0 **** 0.06
16645 H 153.3874730341651 115.96832038163141 78.89078102255735 H 0.0 **** 0.06
16646 C 9.951273041764239 97.90837756464391 2.5476552605187166 C 0.0 **** -0.24
16647 H 10.684664734279124 98.55114449695235 3.034296455484487 H 0.0 **** 0.06
16648 H 9.242361123277107 97.53945203533233 3.2887114001312057 H 0.0 **** 0.06
16649 H 10.46176271651754 97.06466941841849 2.080964493406597 H 0.0 **** 0.06
16650 H 9.418832431894089 98.47734715696099 1.785306934340916 H 0.0 **** 0.06
16651 C 49.94595119395291 42.20260085754643 81.21599101389737 C 0.0 **** -0.24
16652 H 49.197456288224984 41.58383280703363 81.70941253901726 H 0.0 **** 0.06
16653 H 50.922190652275034 41.72316255937456 81.29453925075794 H 0.0 **** 0.06
16654 H 49.982036048153674 43.18038894569099 81.69473903046888 H 0.0 **** 0.06
16655 H 49.683062458869344 42.32212636791844 80.16470915795801 H 0.0 **** 0.06
16656 C 77.42173156397195 87.67056147153251 155.83970621940205 C 0.0 **** -0.24
16657 H 78.1701371746249 87.62844798302415 156.63136515591725 H 0.0 **** 0.06
16658 H 76.71407782159106 86.85138310874662 155.96521455036657 H 0.0 **** 0.06
16659 H 77.91372274196353 87.58260498245183 154.87151167410343 H 0.0 **** 0.06
16660 H 76.89089484236902 88.62093875088176 155.89320163314642 H 0.0 **** 0.06
16661 C 101.03187918547468 22.367409012476813 136.7355702625457 C 0.0 **** -0.24
16662 H 102.02397901316499 22.273025862657363 137.17789721625348 H 0.0 **** 0.06
16663 H 100.29066332265961 21.94487910906504 137.41407663217797 H 0.0 **** 0.06
16664 H 101.00536580563386 21.830378089712113 135.78682518635577 H 0.0 **** 0.06
16665 H 100.81045381017958 23.420225401580637 136.5632484890748 H 0.0 **** 0.06
16666 C 185.38427765965918 91.61407913104428 183.50463618139045 C 0.0 **** -0.24
16667 H 185.31809153129535 90.57854374818992 183.17308197101949 H 0.0 **** 0.06
16668 H 184.7651606214646 92.24121583996198 182.86206397591488 H 0.0 **** 0.06
16669 H 186.42018863012896 91.94828854831285 183.44979201300455 H 0.0 **** 0.06
16670 H 185.03150624914662 91.6885362358078 184.53410394511462 H 0.0 **** 0.06
16671 C 183.87544747657557 142.7185435468416 6.300589921815799 C 0.0 **** -0.24
16672 H 184.06567554189152 141.9551863877985 5.545178424784524 H 0.0 **** 0.06
16673 H 184.40665544529142 142.46103329692585 7.218390006969429 H 0.0 **** 0.06
16674 H 182.8057800066418 142.7706154883095 6.501993407670454 H 0.0 **** 0.06
16675 H 184.2248111542516 143.68456255656454 5.936895486272647 H 0.0 **** 0.06
16676 C 8.44175591475684 14.488750415675327 11.781636960116003 C 0.0 **** -0.24
16677 H 8.900731203573798 15.471094875567815 11.887756611410538 H 0.0 **** 0.06
16678 H 8.507265337274532 14.167113689756093 10.742301262748754 H 0.0 **** 0.06
16679 H 7.394357732562753 14.543189840910031 12.079327694095355 H 0.0 **** 0.06
16680 H 8.963179316895065 13.772991732847231 12.417799302987532 H 0.0 **** 0.06
16681 C 33.02975117183786 82.70167485350771 28.448510404290687 C 0.0 **** -0.24
16682 H 31.955044061194826 82.64708473219237 28.27736459640579 H 0.0 **** 0.06
16683 H 33.519735862463705 83.09993948412621 27.559265396632497 H 0.0 **** 0.06
16684 H 33.41476769365494 81.70406463839831 28.66046678414409 H 0.0 **** 0.06
16685 H 33.229680599647565 83.35637154827025 29.297553900762978 H 0.0 **** 0.06
16686 C 151.59033095044455 36.204353834139056 133.56950361737051 C 0.0 **** -0.24
16687 H 151.32148274994938 35.433371276382104 134.29194802127506 H 0.0 **** 0.06
16688 H 151.23933896449827 37.17331781507602 133.92453712775267 H 0.0 **** 0.06
16689 H 151.12537040614825 35.979520260906014 132.6091870337978 H 0.0 **** 0.06
16690 H 152.67266841875988 36.230672623748944 133.45105851775332 H 0.0 **** 0.06
16691 C 119.16357208192409 142.45938443561977 167.81745082691106 C 0.0 **** -0.24
16692 H 118.2573151715805 143.0514486096432 167.94329111862478 H 0.0 **** 0.06
16693 H 119.95237732562981 143.08728535129308 167.39994375255282 H 0.0 **** 0.06
16694 H 118.96402164145888 141.62916408818973 167.14009999136601 H 0.0 **** 0.06
16695 H 119.48122698585144 142.07138794498036 168.78434296391416 H 0.0 **** 0.06
16696 C 120.82815126415086 37.78561924105219 80.85376324002073 C 0.0 **** -0.24
16697 H 121.17645938094604 36.83600160012435 80.44735192251449 H 0.0 **** 0.06
16698 H 121.54189435513517 38.57057155174928 80.60254411701186 H 0.0 **** 0.06
16699 H 120.7417540245648 37.70700387775864 81.93816332352662 H 0.0 **** 0.06
16700 H 119.85536407378565 38.028386097871476 80.42771316576216 H 0.0 **** 0.06
16701 C 3.330286168873954 27.75716469252704 1.3783346068976812 C 0.0 **** -0.24
16702 H 4.38490450785406 28.014162398151086 1.2794068532884921 H 0.0 **** 0.06
16703 H 2.7481142593633763 28.66599152981199 1.5334379006127108 H 0.0 **** 0.06
16704 H 3.1970790016924866 27.090574952249085 2.230259677584911 H 0.0 **** 0.06
16705 H 2.990249534304894 27.25849995320729 0.4704321121858186 H 0.0 **** 0.06
16706 C 114.45053702405295 176.75000814424814 158.48354841055897 C 0.0 **** -0.24
16707 H 114.63429973285128 177.16078140652814 157.4902745401448 H 0.0 **** 0.06
16708 H 113.57056153270196 177.2275335874494 158.91576129324542 H 0.0 **** 0.06
16709 H 115.31475182590924 176.93774232195662 159.11985571895406 H 0.0 **** 0.06
16710 H 114.28081322773954 175.6762269520596 158.40657998553112 H 0.0 **** 0.06
16711 C 19.672963270301125 29.44693903620191 107.77782723094548 C 0.0 **** -0.24
16712 H 19.38253265074877 28.54414275575465 108.31502392790999 H 0.0 **** 0.06
16713 H 20.47659225928288 29.94796668687593 108.31837521932478 H 0.0 **** 0.06
16714 H 18.816002065874187 30.11454913105547 107.69893125958073 H 0.0 **** 0.06
16715 H 20.01837977916273 29.179329200473546 106.77935050660746 H 0.0 **** 0.06
16716 C 170.23124886861044 45.15609507448596 180.81835192162356 C 0.0 **** -0.24
16717 H 170.0130495329171 45.82152879970681 181.6538220757313 H 0.0 **** 0.06
16718 H 169.33750710059692 44.5842463520346 180.56701534439972 H 0.0 **** 0.06
16719 H 171.0334083754364 44.47336445136091 181.09831510058848 H 0.0 **** 0.06
16720 H 170.5399623551035 45.745558532685095 179.9551258946272 H 0.0 **** 0.06
16721 C 141.72767010805455 109.72294946126506 170.8939417917539 C 0.0 **** -0.24
16722 H 142.13809905504053 109.84847167251469 171.89648438275594 H 0.0 **** 0.06
16723 H 141.56927912116134 108.66260962696434 170.69704309660847 H 0.0 **** 0.06
16724 H 142.4245672639983 110.13007444761517 170.1619042634726 H 0.0 **** 0.06
16725 H 140.77694623722124 110.25212512113491 170.82309247329886 H 0.0 **** 0.06
16726 C 64.1541617435355 65.66691824353765 172.7955851565196 C 0.0 **** -0.24
16727 H 63.414784015964585 64.92946903991754 172.48519092258087 H 0.0 **** 0.06
16728 H 65.12759745923046 65.4017512614359 172.38108089618478 H 0.0 **** 0.06
16729 H 64.21476730618156 65.6851315362982 173.8832600062566 H 0.0 **** 0.06
16730 H 63.86024124338422 66.65128589152042 172.4304749669019 H 0.0 **** 0.06
16731 C 66.71433834877453 0.5114211040686882 11.445430939238122 C 0.0 **** -0.24
16732 H 66.39445013983539 -0.5157340104303785 11.620022639326237 H 0.0 **** 0.06
16733 H 67.4628757463961 0.528845042906994 10.652933905923476 H 0.0 **** 0.06
16734 H 67.14334940900906 0.9187683044323762 12.36098166671053 H 0.0 **** 0.06
16735 H 65.85472849370552 1.1134288140510762 11.148025459819422 H 0.0 **** 0.06
16736 C 20.47345762852001 123.1262540531984 32.36653535368872 C 0.0 **** -0.24
16737 H 21.204822853774743 123.86734567257399 32.045657718441504 H 0.0 **** 0.06
16738 H 20.854207136206526 122.12607874920359 32.156605439758465 H 0.0 **** 0.06
16739 H 19.53883019856105 123.27934998872725 31.82728906830789 H 0.0 **** 0.06
16740 H 20.295916619861487 123.22991645501797 33.437357318484246 H 0.0 **** 0.06
16741 C 108.89297771140768 66.19947555139774 41.04131113145834 C 0.0 **** -0.24
16742 H 107.96088232596769 66.06145778262251 40.49352226086171 H 0.0 **** 0.06
16743 H 109.36010999755281 67.13541136296824 40.73255559371523 H 0.0 **** 0.06
16744 H 109.56561366717763 65.36970407580715 40.828061298324286 H 0.0 **** 0.06
16745 H 108.68416878318381 66.23297358311585 42.1101029962864 H 0.0 **** 0.06
16746 C 13.032529012730663 28.30060470256103 73.73556844457414 C 0.0 **** -0.24
16747 H 12.079538559103355 27.94923111017573 74.13085207967805 H 0.0 **** 0.06
16748 H 13.615199131245674 28.749045823714596 74.54091339167428 H 0.0 **** 0.06
16749 H 12.852720007439984 29.043625773169765 72.95882217668526 H 0.0 **** 0.06
16750 H 13.583318941616767 27.459537097395014 73.3135848914593 H 0.0 **** 0.06
16751 C 30.268152283376025 155.9418782910822 50.95186367548786 C 0.0 **** -0.24
16752 H 30.52176990532216 154.9369071213899 50.61648720025994 H 0.0 **** 0.06
16753 H 31.158879013624897 156.42668886713523 51.35286116746818 H 0.0 **** 0.06
16754 H 29.505087999285834 155.88366109465483 51.72924329054558 H 0.0 **** 0.06
16755 H 29.8863154585882 156.52012377729616 50.11124477959453 H 0.0 **** 0.06
16756 C 85.40915548245977 78.21441347594885 116.28970341581719 C 0.0 **** -0.24
16757 H 84.62189445347275 78.77994485162856 116.78684993890936 H 0.0 **** 0.06
16758 H 85.10656740154894 77.99375011076359 115.26579496820942 H 0.0 **** 0.06
16759 H 85.58021213933426 77.28156774242723 116.82651698602008 H 0.0 **** 0.06
16760 H 86.32731568019324 78.8013017338593 116.27900883277819 H 0.0 **** 0.06
16761 C 56.06212980783222 1.6944339740015266 110.6354951215347 C 0.0 **** -0.24
16762 H 55.38246445350434 0.915275539041204 110.98005352581616 H 0.0 **** 0.06
16763 H 55.92962051969991 2.587042202627771 111.24744219351642 H 0.0 **** 0.06
16764 H 55.84486297179173 1.931100020093055 109.59406885916421 H 0.0 **** 0.06
16765 H 57.0911343602383 1.3434376924242315 110.72265958009582 H 0.0 **** 0.06
16766 C 24.766230788791518 152.55573889830998 146.57892713992638 C 0.0 **** -0.24
16767 H 25.10226917817289 152.30982168551418 145.57201042630163 H 0.0 **** 0.06
16768 H 25.53135463964594 152.2629624248343 147.29889785250185 H 0.0 **** 0.06
16769 H 23.841305191077737 152.02044349426694 146.79316492367016 H 0.0 **** 0.06
16770 H 24.59103055855013 153.62882520088624 146.65196833367867 H 0.0 **** 0.06
16771 C 176.5558518072076 169.19049522142626 5.218319207212019 C 0.0 **** -0.24
16772 H 177.0398392578944 168.25471271850165 4.940447664272632 H 0.0 **** 0.06
16773 H 175.63452881160777 168.9765475691852 5.759293959278814 H 0.0 **** 0.06
16774 H 176.32431051085143 169.76126797654456 4.318333382550939 H 0.0 **** 0.06
16775 H 177.22543311871817 169.77069801771816 5.853213643135362 H 0.0 **** 0.06
16776 C 71.75635515211077 185.18123118764387 54.616204263938556 C 0.0 **** -0.24
16777 H 71.88034430941366 184.1260428257985 54.37537332567496 H 0.0 **** 0.06
16778 H 72.68862888559848 185.7101438672445 54.41943177074077 H 0.0 **** 0.06
16779 H 71.49500076342477 185.2852773122744 55.66912716837474 H 0.0 **** 0.06
16780 H 70.96149713089481 185.6041438617443 54.0016133705827 H 0.0 **** 0.06
16781 C 141.14855747176978 84.97459403386215 76.11755205864335 C 0.0 **** -0.24
16782 H 141.15895682813317 84.89137605831382 75.0313559647712 H 0.0 **** 0.06
16783 H 140.51815917560094 85.81521692153937 76.41148159099478 H 0.0 **** 0.06
16784 H 142.16339118441658 85.13798260853687 76.4797799771001 H 0.0 **** 0.06
16785 H 140.75214099932748 84.05474424923557 76.54920557039028 H 0.0 **** 0.06
16786 C 120.77557394388619 35.63941458764812 68.97742000550193 C 0.0 **** -0.24
16787 H 121.0786006809655 36.15295250628293 68.06503852656766 H 0.0 **** 0.06
16788 H 120.83527325451489 36.329432651597855 69.81972307042926 H 0.0 **** 0.06
16789 H 121.43751562207451 34.79145656917302 69.15393851200433 H 0.0 **** 0.06
16790 H 119.75014940880156 35.283956515370036 68.86979343942562 H 0.0 **** 0.06
16791 C 56.85048963151951 81.41976361152035 35.27192095589345 C 0.0 **** -0.24
16792 H 57.06847752690089 80.87694217588107 34.352352838935985 H 0.0 **** 0.06
16793 H 56.65445060833679 80.70894626751503 36.07452220316651 H 0.0 **** 0.06
16794 H 55.97378378783952 82.05058389352752 35.12187088950867 H 0.0 **** 0.06
16795 H 57.70487456309212 82.04231532255399 35.536990968729754 H 0.0 **** 0.06
16796 C 83.0142934119458 147.31434659606106 135.67094340537608 C 0.0 **** -0.24
16797 H 83.02050205609173 147.1615504621123 134.59151755411705 H 0.0 **** 0.06
16798 H 82.40506274606904 148.18727441541085 135.91008653583998 H 0.0 **** 0.06
16799 H 84.03445607292979 147.47575600267044 136.02052820748708 H 0.0 **** 0.06
16800 H 82.59769701085003 146.4344619132604 136.16066141987204 H 0.0 **** 0.06
16801 C 124.46145743296545 122.3099145669946 93.21147255812464 C 0.0 **** -0.24
16802 H 123.65301406943139 122.83105294298907 93.7252113134726 H 0.0 **** 0.06
16803 H 125.1697527962993 121.92627530450308 93.94584981777429 H 0.0 **** 0.06
16804 H 124.97034866448534 123.00236367808698 92.54170447875963 H 0.0 **** 0.06
16805 H 124.05051531698227 121.48109875440291 92.63482249519792 H 0.0 **** 0.06
16806 C 59.126613140536904 65.96714865328255 91.31199233984601 C 0.0 **** -0.24
16807 H 59.32810348889703 66.67614535264624 92.11519884553111 H 0.0 **** 0.06
16808 H 59.64226790096197 66.28889983548277 90.40626790658216 H 0.0 **** 0.06
16809 H 58.053848832138556 65.92573424248081 91.12407495844921 H 0.0 **** 0.06
16810 H 59.4836051573443 64.9798091154282 91.60205381356364 H 0.0 **** 0.06
16811 C 133.17645341423577 144.64564759696026 184.92792255648104 C 0.0 **** -0.24
16812 H 134.23503269321543 144.7459969978452 185.16831448571116 H 0.0 **** 0.06
16813 H 132.58505898531502 144.77229015684273 185.8338914393415 H 0.0 **** 0.06
16814 H 132.99181083198056 143.6574388371794 184.50765965474184 H 0.0 **** 0.06
16815 H 132.89633460221233 145.40772771002628 184.2002813466244 H 0.0 **** 0.06
16816 C 4.197018367274836 116.2571582819 58.10628229995292 C 0.0 **** -0.24
16817 H 3.199622455974179 116.03096196753607 57.72896149155149 H 0.0 **** 0.06
16818 H 4.39820428557789 117.32112490433296 57.984776764507245 H 0.0 **** 0.06
16819 H 4.934808662235241 115.68130948001242 57.54801893136985 H 0.0 **** 0.06
16820 H 4.2537046279511515 115.99403037036406 59.16263723036677 H 0.0 **** 0.06
16821 C 31.744950718277096 112.94907717243534 83.200518729612 C 0.0 **** -0.24
16822 H 32.29961602366305 113.88769607243965 83.21376036385278 H 0.0 **** 0.06
16823 H 31.39387642895352 112.72221756750913 84.20732006692158 H 0.0 **** 0.06
16824 H 32.39618350311906 112.14813989448511 82.85259105856765 H 0.0 **** 0.06
16825 H 30.89123487078851 113.0421243531306 82.52929906719591 H 0.0 **** 0.06
16826 C 9.625800707225743 146.7271991180968 154.68871571975612 C 0.0 **** -0.24
16827 H 9.320463290379145 146.57180349400096 155.72361070579817 H 0.0 **** 0.06
16828 H 9.41691504419466 145.8281421599304 154.10924637667844 H 0.0 **** 0.06
16829 H 10.694472834895912 146.94182674206638 154.654172126225 H 0.0 **** 0.06
16830 H 9.072872415542584 147.56804888250497 154.26945762277646 H 0.0 **** 0.06
16831 C 30.001681526414814 51.47512656389176 164.86781348004925 C 0.0 **** -0.24
16832 H 30.939664539651773 51.79244367448666 165.32327816328535 H 0.0 **** 0.06
16833 H 29.527760592057007 50.72145849715787 165.49764662156335 H 0.0 **** 0.06
16834 H 30.201572528232816 51.0524111962969 163.88274409621718 H 0.0 **** 0.06
16835 H 29.338264296346154 52.33453772620152 164.76632250204642 H 0.0 **** 0.06
16836 C 31.837836929598183 11.85819289135597 39.0006380666739 C 0.0 **** -0.24
16837 H 32.831096127577396 11.967027333241163 39.43541913437576 H 0.0 **** 0.06
16838 H 31.15653902948729 12.567192737744563 39.469759291083506 H 0.0 **** 0.06
16839 H 31.478873296339216 10.843039672976886 39.16789654404266 H 0.0 **** 0.06
16840 H 31.886979798200215 12.054870818624664 37.929391527094964 H 0.0 **** 0.06
16841 C 39.05086951982912 21.45842793830178 147.3525066816681 C 0.0 **** -0.24
16842 H 39.558165108225126 22.338613157299562 147.74867527238303 H 0.0 **** 0.06
16843 H 39.05239246234561 21.499233758733965 146.2624883464856 H 0.0 **** 0.06
16844 H 38.023012833370046 21.4391055088567 147.71396570361094 H 0.0 **** 0.06
16845 H 39.57021577489377 20.5593918341566 147.68317251728558 H 0.0 **** 0.06
16846 C 61.855496414983975 179.6558540365669 133.19502701761832 C 0.0 **** -0.24
16847 H 62.37762902415163 179.30564680740795 132.3050001745741 H 0.0 **** 0.06
16848 H 62.539631489051104 179.64605223300555 134.04385945215762 H 0.0 **** 0.06
16849 H 61.010314077518686 178.9995108500807 133.4021158845871 H 0.0 **** 0.06
16850 H 61.495018180932746 180.6712590919588 133.02998949876712 H 0.0 **** 0.06
16851 C 86.18603478330913 134.7782513190644 15.87879089401293 C 0.0 **** -0.24
16852 H 85.41591024811378 134.2534127255339 15.313187655902702 H 0.0 **** 0.06
16853 H 87.14346660640145 134.67773172334472 15.366335520278547 H 0.0 **** 0.06
16854 H 86.26138142359055 134.3474882653773 16.876448851617774 H 0.0 **** 0.06
16855 H 85.92428221382953 135.83315282983335 15.95660310695201 H 0.0 **** 0.06
16856 C 57.901149444254344 177.7550243585828 76.01799841542181 C 0.0 **** -0.24
16857 H 57.22238112818934 178.27996577964942 76.69132187345873 H 0.0 **** 0.06
16858 H 58.52998746334201 178.47959578719906 75.50105224488259 H 0.0 **** 0.06
16859 H 57.32296493124613 177.18835305223809 75.28852898576851 H 0.0 **** 0.06
16860 H 58.52787577247936 177.07404083107997 76.59324000929966 H 0.0 **** 0.06
16861 C 123.46496583986819 5.838738854550684 24.58290950283856 C 0.0 **** -0.24
16862 H 123.53252897232939 6.467912218753554 23.69614942753904 H 0.0 **** 0.06
16863 H 122.7491691945579 6.271012437555072 25.282144139076138 H 0.0 **** 0.06
16864 H 124.44332636766923 5.774004337953556 25.057843660972736 H 0.0 **** 0.06
16865 H 123.13381431164201 4.840073726203514 24.295130017433195 H 0.0 **** 0.06
16866 C 12.573916443565139 12.353284089396965 25.97034243128502 C 0.0 **** -0.24
16867 H 12.067408715216487 11.86206517859577 25.140081482418623 H 0.0 **** 0.06
16868 H 13.150237483980817 13.198907732378558 25.59427316950905 H 0.0 **** 0.06
16869 H 13.242664236328665 11.644489938945213 26.458417833724752 H 0.0 **** 0.06
16870 H 11.834017406283863 12.708130522310313 26.688563716296585 H 0.0 **** 0.06
16871 C 132.54625599112927 109.09613535861045 45.82438194826611 C 0.0 **** -0.24
16872 H 132.31574440498594 109.98542037242528 45.23769298663966 H 0.0 **** 0.06
16873 H 132.2573269306023 109.26214595842178 46.86310611210894 H 0.0 **** 0.06
16874 H 133.61585188145892 108.89339690308417 45.773587226295476 H 0.0 **** 0.06
16875 H 131.99554278266527 108.24471810147621 45.426037939704216 H 0.0 **** 0.06
16876 C 42.147827671273944 181.2009905676257 133.9512595147687 C 0.0 **** -0.24
16877 H 41.27492437906682 181.68336013236964 133.51355783296566 H 0.0 **** 0.06
16878 H 42.40072105041577 181.69048626791889 134.89309088148036 H 0.0 **** 0.06
16879 H 42.99015631227263 181.2798925673789 133.2635245996005 H 0.0 **** 0.06
16880 H 41.927572204536546 180.14954924413217 134.1359999746934 H 0.0 **** 0.06
16881 C 97.92747462653197 150.11882587029868 63.72239537639406 C 0.0 **** -0.24
16882 H 97.66498482185462 151.12557150742117 63.396382028310825 H 0.0 **** 0.06
16883 H 97.60814107015112 149.97725712926712 64.75482199851474 H 0.0 **** 0.06
16884 H 99.0064280261246 149.98470294379672 63.65258178056911 H 0.0 **** 0.06
16885 H 97.42856011300024 149.3896832365121 63.08432509732819 H 0.0 **** 0.06
16886 C 112.17400693295214 158.2893752282773 144.72645183330957 C 0.0 **** -0.24
16887 H 111.7633155422905 158.3010952372791 143.71658273310297 H 0.0 **** 0.06
16888 H 112.2444884193957 157.2602054880138 145.0780942110285 H 0.0 **** 0.06
16889 H 111.52177388022925 158.8571396601376 145.3903749985554 H 0.0 **** 0.06
16890 H 113.1667392312667 158.7410309781579 144.7197386653903 H 0.0 **** 0.06
16891 C 58.63177615379726 151.79930462341844 116.50301496721691 C 0.0 **** -0.24
16892 H 58.778050678362774 150.7435632361787 116.72712923109809 H 0.0 **** 0.06
16893 H 58.427871756793394 151.92041565068524 115.43892451531049 H 0.0 **** 0.06
16894 H 59.533098699385164 152.35487813734414 116.76515642463171 H 0.0 **** 0.06
16895 H 57.78898695983298 152.18029835154948 117.08019217464918 H 0.0 **** 0.06
16896 C 169.7088262638598 32.410244334608436 156.860495847418 C 0.0 **** -0.24
16897 H 170.74473415978522 32.38079796768622 157.19913299737968 H 0.0 **** 0.06
16898 H 169.28865799913285 33.395669408261085 157.06583083685942 H 0.0 **** 0.06
16899 H 169.13210508179523 31.651124903135198 157.3886745328285 H 0.0 **** 0.06
16900 H 169.67209591128068 32.21501926583733 155.78865191189465 H 0.0 **** 0.06
16901 C 94.95910631075803 113.4144185034595 157.49152613114273 C 0.0 **** -0.24
16902 H 94.76735973827643 112.36794610968997 157.25514479627154 H 0.0 **** 0.06
16903 H 94.65607987774517 114.0385087060962 156.6504525443964 H 0.0 **** 0.06
16904 H 96.02335897709806 113.55454675534463 157.68339254994015 H 0.0 **** 0.06
16905 H 94.39104815425698 113.69766063928449 158.37706108894758 H 0.0 **** 0.06
16906 C 183.97085819704503 84.6246864950113 32.964827815836884 C 0.0 **** -0.24
16907 H 184.66224233810158 84.659315388016 32.12328746911007 H 0.0 **** 0.06
16908 H 183.10027937276658 84.02760716889598 32.69582015888025 H 0.0 **** 0.06
16909 H 183.65443000149605 85.63716189883014 33.216242066340214 H 0.0 **** 0.06
16910 H 184.46780980694203 84.17559956978124 33.82455706748027 H 0.0 **** 0.06
16911 C 4.394512026075176 105.50227811395301 54.60223161839974 C 0.0 **** -0.24
16912 H 4.636931399178366 104.59440891097672 54.049639791446225 H 0.0 **** 0.06
16913 H 4.9729018020187254 106.33627839875633 54.20254149056194 H 0.0 **** 0.06
16914 H 4.637259911031151 105.36222375836569 55.65532828609793 H 0.0 **** 0.06
16915 H 3.33041807222412 105.71626283706327 54.50057549847554 H 0.0 **** 0.06
16916 C 167.36815163126772 146.22904695073817 24.536198798781356 C 0.0 **** -0.24
16917 H 168.23010664845486 145.56305281563016 24.566277141443848 H 0.0 **** 0.06
16918 H 167.6686794473835 147.22806409597766 24.85464373819954 H 0.0 **** 0.06
16919 H 166.5942532943448 145.85177878516157 25.205430809196926 H 0.0 **** 0.06
16920 H 166.97859328520548 146.2735510509574 23.519435783378412 H 0.0 **** 0.06
16921 C 19.6590677797017 57.34088593049701 154.06276099390064 C 0.0 **** -0.24
16922 H 20.271520620390113 57.55571058659454 154.93841745982667 H 0.0 **** 0.06
16923 H 18.820887525865537 58.036910265386936 154.0259051018579 H 0.0 **** 0.06
16924 H 19.282715693528587 56.32018185550571 154.12448328822217 H 0.0 **** 0.06
16925 H 20.264029140029756 57.45105126866375 153.16146427692146 H 0.0 **** 0.06
16926 C 148.9005864432176 152.3695007519737 149.025453892511 C 0.0 **** -0.24
16927 H 149.64663744778636 153.059057758944 148.63050276251477 H 0.0 **** 0.06
16928 H 148.9905532510836 152.3199719114054 150.1098985396585 H 0.0 **** 0.06
16929 H 149.06306193681257 151.37824354436503 148.6009315104039 H 0.0 **** 0.06
16930 H 147.90367899205665 152.7205860187638 148.75775060805597 H 0.0 **** 0.06
16931 C 139.36898295868946 76.28156258025687 5.481424289936058 C 0.0 **** -0.24
16932 H 138.93028130837075 75.65484327528777 6.257452074249159 H 0.0 **** 0.06
16933 H 139.25381462355767 75.7944786666252 4.513043743265541 H 0.0 **** 0.06
16934 H 140.42828899312576 76.43125798911488 5.690324684998359 H 0.0 **** 0.06
16935 H 138.8621508681959 77.24647825877874 5.465507918103867 H 0.0 **** 0.06
16936 C 72.28264210360156 143.22369810508084 31.43235984789905 C 0.0 **** -0.24
16937 H 71.7668738390687 142.6511090125059 30.661869628974983 H 0.0 **** 0.06
16938 H 73.18356755383728 143.67068219073641 31.011596335426134 H 0.0 **** 0.06
16939 H 72.55447188341383 142.56340217198124 32.25604438739322 H 0.0 **** 0.06
16940 H 71.62406006717896 144.01065221807815 31.800517830374304 H 0.0 **** 0.06
16941 C 1.3308960288493665 51.58928435278477 58.924539425269074 C 0.0 **** -0.24
16942 H 0.4440952246928873 51.57476143601403 58.29059479677289 H 0.0 **** 0.06
16943 H 2.1977182663045483 51.878342838858714 58.33020385911766 H 0.0 **** 0.06
16944 H 1.4923956173701924 50.59600541140077 59.345013235240515 H 0.0 **** 0.06
16945 H 1.1868949206333355 52.30671382882167 59.732696589606974 H 0.0 **** 0.06
16946 C 143.56507856981938 141.5685459522864 47.09111022259678 C 0.0 **** -0.24
16947 H 144.59255488232532 141.93019505963275 47.12512055268179 H 0.0 **** 0.06
16948 H 142.89914128465205 142.32584417349517 47.505947929850024 H 0.0 **** 0.06
16949 H 143.48270517482132 140.65313961314195 47.6759565178545 H 0.0 **** 0.06
16950 H 143.2853719968811 141.36626680433352 46.057076495192334 H 0.0 **** 0.06
16951 C 166.82354387241284 4.6296869605204165 98.30303760179709 C 0.0 **** -0.24
16952 H 166.1273108424345 3.8968416668267025 97.89561558579794 H 0.0 **** 0.06
16953 H 166.2691752906646 5.505596491723878 98.64177549631967 H 0.0 **** 0.06
16954 H 167.53337869899792 4.924051473086109 97.53010849003346 H 0.0 **** 0.06
16955 H 167.36144504523895 4.19226073797995 99.14376286988926 H 0.0 **** 0.06
16956 C 17.40810450949556 58.19866111709837 0.23107564559103366 C 0.0 **** -0.24
16957 H 16.821222234386425 58.54223098421784 1.0837797802155933 H 0.0 **** 0.06
16958 H 18.25125607864436 58.87251024566888 0.07665361213582855 H 0.0 **** 0.06
16959 H 16.781741792235607 58.18929610436828 -0.6606397760228901 H 0.0 **** 0.06
16960 H 17.77707781306856 57.19199595370378 0.42692075678672836 H 0.0 **** 0.06
16961 C 173.63087585550537 127.5718482104627 104.6983496325026 C 0.0 **** -0.24
16962 H 173.7292329963428 127.42073630148083 105.77378696264468 H 0.0 **** 0.06
16963 H 172.57582255610924 127.67547665848322 104.44209179542575 H 0.0 **** 0.06
16964 H 174.05007122796414 126.71462765548024 104.17258971086441 H 0.0 **** 0.06
16965 H 174.16716640378934 128.4748186340641 104.40767419638551 H 0.0 **** 0.06
16966 C 174.8100138004297 185.2484843520149 21.711876170516177 C 0.0 **** -0.24
16967 H 175.67413565859817 185.85435898815768 21.986790218962483 H 0.0 **** 0.06
16968 H 174.71562751389428 184.4137866295851 22.407095794444388 H 0.0 **** 0.06
16969 H 174.94239517055584 184.8655816607602 20.699671112322363 H 0.0 **** 0.06
16970 H 173.90970885929823 185.86150525618632 21.754146111901775 H 0.0 **** 0.06
16971 C 12.074631182354011 171.37931036364805 67.80715615877266 C 0.0 **** -0.24
16972 H 12.87386028609572 170.93500551922037 68.40091488378503 H 0.0 **** 0.06
16973 H 12.499551756523601 172.10158598871567 67.10938770472038 H 0.0 **** 0.06
16974 H 11.368356030637187 171.88338719180234 68.467716794283 H 0.0 **** 0.06
16975 H 11.557812086194247 170.59747968342475 67.25152125386711 H 0.0 **** 0.06
16976 C 85.85866549242434 87.34124362377024 9.612647364071748 C 0.0 **** -0.24
16977 H 85.19342227712912 87.74813743117188 8.850909703531983 H 0.0 **** 0.06
16978 H 86.08714110838798 86.30141615055685 9.377911144050351 H 0.0 **** 0.06
16979 H 85.3728911281778 87.39660564679131 10.586635385863644 H 0.0 **** 0.06
16980 H 86.78269288493152 87.92061176883665 9.634380741106988 H 0.0 **** 0.06
16981 C 183.3706921998069 138.31663025659714 146.57192379523707 C 0.0 **** -0.24
16982 H 184.0484520617033 139.13773560297471 146.33542648529914 H 0.0 **** 0.06
16983 H 182.73287752800843 138.11251072152425 145.7129371950649 H 0.0 **** 0.06
16984 H 182.75427381266206 138.59112359858204 147.4274517721436 H 0.0 **** 0.06
16985 H 183.9515116113684 137.42600751386158 146.81397199360435 H 0.0 **** 0.06
16986 C 99.56078144602033 2.0698473083784847 134.9229696782815 C 0.0 **** -0.24
16987 H 99.23416553211028 2.447726205513959 135.89146589981254 H 0.0 **** 0.06
16988 H 100.60190730155931 1.7524528529349936 134.98900829629372 H 0.0 **** 0.06
16989 H 99.4680057071191 2.8573178381292337 134.1746835005428 H 0.0 **** 0.06
16990 H 98.93889491310507 1.2211574751304397 134.63606010925457 H 0.0 **** 0.06
16991 C 15.641578625121454 158.10470146505367 59.94544468716647 C 0.0 **** -0.24
16992 H 15.354905826601247 159.0953774532516 59.59324425356955 H 0.0 **** 0.06
16993 H 16.715230107037726 158.08505030424973 60.13769644717385 H 0.0 **** 0.06
16994 H 15.394293389012851 157.3627820599756 59.18618388162281 H 0.0 **** 0.06
16995 H 15.102934334460805 157.87632375982616 60.86526223508048 H 0.0 **** 0.06
16996 C 10.061267806148209 23.431247653502965 10.261628910685317 C 0.0 **** -0.24
16997 H 9.029379699772022 23.140452001801407 10.458619239214762 H 0.0 **** 0.06
16998 H 10.075327547298173 24.393280885064684 9.748631086800913 H 0.0 **** 0.06
16999 H 10.537972109320634 22.677748621681616 9.63417405608331 H 0.0 **** 0.06
17000 H 10.601560204085587 23.513757454153364 11.203974700229132 H 0.0 **** 0.06
17001 C 17.97165921569666 154.35285962346939 34.05907683719229 C 0.0 **** -0.24
17002 H 16.995526829253492 154.81747713960095 33.92299792884651 H 0.0 **** 0.06
17003 H 18.49751334972433 154.32721713084547 33.104032186461495 H 0.0 **** 0.06
17004 H 17.841117703311795 153.33602700242352 34.42896018388609 H 0.0 **** 0.06
17005 H 18.55168988095278 154.92986059833217 34.778408216665724 H 0.0 **** 0.06
17006 C 41.69739072246176 4.514824688629716 72.05652016329012 C 0.0 **** -0.24
17007 H 41.70941735083443 4.157268493066212 71.02605408734165 H 0.0 **** 0.06
17008 H 42.48648888390841 4.018661415409582 72.62190628917784 H 0.0 **** 0.06
17009 H 40.73113606614277 4.2914567653036215 72.50642684271057 H 0.0 **** 0.06
17010 H 41.86409443343024 5.5924060875916695 72.06833496451299 H 0.0 **** 0.06
17011 C 89.21068582240373 143.47522144674008 87.30132972375311 C 0.0 **** -0.24
17012 H 88.4794225595957 143.76666459199257 86.54792792063849 H 0.0 **** 0.06
17013 H 90.18227121217699 143.32920158172544 86.82827220412624 H 0.0 **** 0.06
17014 H 88.89372623629335 142.5459953781467 87.77557218857628 H 0.0 **** 0.06
17015 H 89.28765715067927 144.25926805184724 88.05489903655989 H 0.0 **** 0.06
17016 C 147.0501062795995 137.71349764384604 83.63040231833212 C 0.0 **** -0.24
17017 H 146.16599204105108 138.30084366669217 83.38102300144293 H 0.0 **** 0.06
17018 H 146.81203959211913 136.65217687961365 83.55945972781817 H 0.0 **** 0.06
17019 H 147.36684291044068 137.94884050232582 84.64608435002279 H 0.0 **** 0.06
17020 H 147.85243453837126 137.95391871227298 82.93399841330215 H 0.0 **** 0.06
17021 C 145.90102777885778 15.481207057403935 144.82400148768465 C 0.0 **** -0.24
17022 H 145.18730249035323 14.657821182600628 144.84737395668913 H 0.0 **** 0.06
17023 H 146.35478053210568 15.596229840124238 145.80901397134605 H 0.0 **** 0.06
17024 H 145.3845314970988 16.4010738682299 144.55159190547948 H 0.0 **** 0.06
17025 H 146.6769963409159 15.268604492038321 144.08876254814916 H 0.0 **** 0.06
17026 C 44.3644610668981 176.6643170568878 9.084019098678937 C 0.0 **** -0.24
17027 H 43.57753430057555 175.91094231862544 9.04672118600348 H 0.0 **** 0.06
17028 H 45.22163765946894 176.26526370342157 9.627621994175968 H 0.0 **** 0.06
17029 H 43.99248855427845 177.55261743556412 9.593855574753462 H 0.0 **** 0.06
17030 H 44.66589470020942 176.92555936971144 8.070242224282879 H 0.0 **** 0.06
17031 C 130.41469791489328 86.90493188691329 165.87728465262572 C 0.0 **** -0.24
17032 H 130.5445208144149 86.06062731680976 166.55360273339468 H 0.0 **** 0.06
17033 H 129.3592801515511 87.17706469535301 165.8354339362232 H 0.0 **** 0.06
17034 H 130.75897812042632 86.62801714237003 164.88123911744083 H 0.0 **** 0.06
17035 H 130.99479905176275 87.75411893320359 166.23958206393934 H 0.0 **** 0.06
17036 C 185.28206339846218 126.61640970488237 101.4762228539657 C 0.0 **** -0.24
17037 H 185.60387651482475 126.23045674156928 100.5093614508976 H 0.0 **** 0.06
17038 H 185.82203069054947 127.53767682699218 101.69676898765907 H 0.0 **** 0.06
17039 H 185.4913926529404 125.87743926318673 102.25008093450388 H 0.0 **** 0.06
17040 H 184.21190653213694 126.82033408046608 101.44853746068075 H 0.0 **** 0.06
17041 C 27.30285418788668 104.51565853948493 170.66199268517235 C 0.0 **** -0.24
17042 H 26.277941539979963 104.84996239655278 170.82774369570106 H 0.0 **** 0.06
17043 H 27.993584931762996 105.31464899988997 170.93396268441563 H 0.0 **** 0.06
17044 H 27.4361548141257 104.26181761031346 169.61023268574715 H 0.0 **** 0.06
17045 H 27.502086690310648 103.63763176751233 171.2765280911963 H 0.0 **** 0.06
17046 C 46.09568656712162 142.956145723704 40.58477319803394 C 0.0 **** -0.24
17047 H 47.15346019740585 142.84556321279666 40.820325275960315 H 0.0 **** 0.06
17048 H 45.49947031121772 142.70038698381308 41.461991564885196 H 0.0 **** 0.06
17049 H 45.8351435850322 142.29041117266928 39.76160964221286 H 0.0 **** 0.06
17050 H 45.89267491367093 143.98729753344156 40.29556293237869 H 0.0 **** 0.06
17051 C 162.0064679207711 94.93787122418064 103.61934795608057 C 0.0 **** -0.24
17052 H 161.2770075302794 95.7463677159825 103.56814901036101 H 0.0 **** 0.06
17053 H 161.70650859467617 94.22629826182043 104.38821118796189 H 0.0 **** 0.06
17054 H 162.9861748802922 95.34911791264648 103.86602961310489 H 0.0 **** 0.06
17055 H 162.05725609280194 94.43267416038236 102.65506592254629 H 0.0 **** 0.06
17056 C 111.49892456083519 46.591299303940986 66.8057537897426 C 0.0 **** -0.24
17057 H 111.44586505937305 46.294773181553126 67.85283797317942 H 0.0 **** 0.06
17058 H 111.49361314192926 47.678806754754376 66.73530745815287 H 0.0 **** 0.06
17059 H 110.63962555443312 46.18724576170813 66.26982344451119 H 0.0 **** 0.06
17060 H 112.41740913500227 46.20286528389585 66.36478612289778 H 0.0 **** 0.06
17061 C 25.49218585801337 12.470536815643356 106.97527887949032 C 0.0 **** -0.24
17062 H 24.614845707434483 12.303577769459991 107.60216512254145 H 0.0 **** 0.06
17063 H 25.595042084702555 11.64639614546158 106.26970173711003 H 0.0 **** 0.06
17064 H 26.381505002358693 12.52585776137849 107.60354270113204 H 0.0 **** 0.06
17065 H 25.373614826256187 13.40564500270898 106.42846178288566 H 0.0 **** 0.06
17066 C 156.15003754457894 156.32409623266682 124.62926723120135 C 0.0 **** -0.24
17067 H 155.6136137690616 156.80607196216073 125.44701554749734 H 0.0 **** 0.06
17068 H 157.09183561680155 155.92035093367 125.00305530978578 H 0.0 **** 0.06
17069 H 156.35322661671597 157.05592192912093 123.84758717602078 H 0.0 **** 0.06
17070 H 155.54232321528252 155.51637181236975 124.22270371644133 H 0.0 **** 0.06
17071 C 166.38439485809457 62.22117154484772 112.32803995133877 C 0.0 **** -0.24
17072 H 166.297412730189 62.59444238125093 113.3491145762563 H 0.0 **** 0.06
17073 H 167.33840773385157 62.537443586727306 111.90562924606637 H 0.0 **** 0.06
17074 H 165.57006657920786 62.6224819185978 111.7250044675708 H 0.0 **** 0.06
17075 H 166.3306932876075 61.13236317686591 112.33331727130935 H 0.0 **** 0.06
17076 C 147.832365759682 19.85485323292059 166.6136607484225 C 0.0 **** -0.24
17077 H 147.3119434902638 20.760074146374222 166.92594605829132 H 0.0 **** 0.06
17078 H 147.86935522958186 19.815282265408968 165.52525812653428 H 0.0 **** 0.06
17079 H 147.2997801454833 18.982231889372116 166.99171222108254 H 0.0 **** 0.06
17080 H 148.84681658196223 19.863814622452452 167.01298467638895 H 0.0 **** 0.06
17081 C 27.804261165187953 157.3492213771599 160.92276319609405 C 0.0 **** -0.24
17082 H 28.024737752234955 157.4840347805067 159.86400459496198 H 0.0 **** 0.06
17083 H 27.56603144890994 158.31390465887642 161.37018147672845 H 0.0 **** 0.06
17084 H 28.67295330046076 156.92126128812495 161.42226542749353 H 0.0 **** 0.06
17085 H 26.952859489937126 156.6770072998821 161.03252112175267 H 0.0 **** 0.06
17086 C 29.17765569968681 80.2610994629973 164.76353441651943 C 0.0 **** -0.24
17087 H 28.857458704549842 79.22394939969898 164.65783188440224 H 0.0 **** 0.06
17088 H 28.3089397975003 80.91685602790247 164.70876798751755 H 0.0 **** 0.06
17089 H 29.87157755551503 80.508702888486 163.96013017851726 H 0.0 **** 0.06
17090 H 29.67256452486029 80.39226118198614 165.7249407720165 H 0.0 **** 0.06
17091 C 22.64159503017771 124.48248434941195 65.52816317271103 C 0.0 **** -0.24
17092 H 21.995277593907204 125.15597516971195 64.96515939439695 H 0.0 **** 0.06
17093 H 23.012230240108238 124.99426513042778 66.41666773212165 H 0.0 **** 0.06
17094 H 23.48266322147188 124.18066513662956 64.90513766138987 H 0.0 **** 0.06
17095 H 22.07521976486632 123.59972663960053 65.82642190273577 H 0.0 **** 0.06
17096 C 49.99609734133418 170.0080621745941 150.57141831945182 C 0.0 **** -0.24
17097 H 49.512916204513346 169.47496200546001 151.39027029862632 H 0.0 **** 0.06
17098 H 50.70128911706766 169.3437380586857 150.0719572186434 H 0.0 **** 0.06
17099 H 50.52878679296282 170.8734823587649 150.9647352387816 H 0.0 **** 0.06
17100 H 49.24133329183937 170.3392259925639 149.85817213656674 H 0.0 **** 0.06
17101 C 4.934984373763683 163.05742732712312 180.8684519506748 C 0.0 **** -0.24
17102 H 5.56741951808192 163.29201294382727 180.0120345590827 H 0.0 **** 0.06
17103 H 4.1360066868030145 162.38552923197955 180.55605004361445 H 0.0 **** 0.06
17104 H 4.503054165272651 163.97688619369342 181.2634646700418 H 0.0 **** 0.06
17105 H 5.533862795454276 162.576519672633 181.6417098772504 H 0.0 **** 0.06
17106 C 15.367342303758406 69.85460136942109 171.43796638930945 C 0.0 **** -0.24
17107 H 14.771983798937576 69.81465517004418 170.52557671104225 H 0.0 **** 0.06
17108 H 16.007594113550063 70.73639110664531 171.416015557195 H 0.0 **** 0.06
17109 H 15.984371355114199 68.95902067584318 171.5083917084686 H 0.0 **** 0.06
17110 H 14.704129323228479 69.90651913645475 172.30203726454175 H 0.0 **** 0.06
17111 C 148.31001518873487 64.67930000434015 18.186754398120627 C 0.0 **** -0.24
17112 H 147.6376593011877 63.837157697358776 18.351524742049122 H 0.0 **** 0.06
17113 H 149.32652365412326 64.30971062445622 18.0494350290638 H 0.0 **** 0.06
17114 H 148.2772926786642 65.34412049081651 19.04894537464625 H 0.0 **** 0.06
17115 H 147.99730717628046 65.2243380401934 17.29514818237186 H 0.0 **** 0.06
17116 C 158.6651855244604 31.21870930460085 120.19257667636232 C 0.0 **** -0.24
17117 H 159.53194068327198 31.71907416532804 119.76115941273794 H 0.0 **** 0.06
17118 H 158.3854794964027 30.37224910332759 119.5645169215429 H 0.0 **** 0.06
17119 H 157.8323364040582 31.92039145431623 120.25048952006468 H 0.0 **** 0.06
17120 H 158.91085504003942 30.863801974817733 121.19290742753059 H 0.0 **** 0.06
17121 C 54.21463682320197 112.99788875265382 124.91979069296815 C 0.0 **** -0.24
17122 H 53.779612297857966 113.11862380518939 125.91271370742248 H 0.0 **** 0.06
17123 H 54.425513065414535 111.94334542704688 124.74247474647439 H 0.0 **** 0.06
17124 H 55.14083818119333 113.57006414316608 124.85788952998877 H 0.0 **** 0.06
17125 H 53.51292474342938 113.36020289679858 124.168986481878 H 0.0 **** 0.06
17126 C 129.32604375496078 19.18591693532474 106.3440925863528 C 0.0 **** -0.24
17127 H 129.24918802454533 20.022759803430176 107.03872744694802 H 0.0 **** 0.06
17128 H 129.0348353183163 19.513978598379367 105.34603168339525 H 0.0 **** 0.06
17129 H 128.66604848051782 18.382107193520085 106.66969278668584 H 0.0 **** 0.06
17130 H 130.35436679563566 18.824565612745005 106.3228483374617 H 0.0 **** 0.06
17131 C 176.79834170348607 164.027454057428 126.19994034390324 C 0.0 **** -0.24
17132 H 176.13891416230223 164.73253940916598 126.70685685476114 H 0.0 **** 0.06
17133 H 177.42362195201304 163.52310775903402 126.93761698041367 H 0.0 **** 0.06
17134 H 177.43089700140712 164.56439456185365 125.4938787144143 H 0.0 **** 0.06
17135 H 176.2003395062657 163.2897092022237 125.66551144424069 H 0.0 **** 0.06
17136 C 112.63884962572116 57.826785356562425 125.34532439948372 C 0.0 **** -0.24
17137 H 113.40494731567487 58.594589136320565 125.23192652581052 H 0.0 **** 0.06
17138 H 112.39993613722415 57.406548539832045 124.36849190584847 H 0.0 **** 0.06
17139 H 111.74288679765534 58.26877192637269 125.78035638402532 H 0.0 **** 0.06
17140 H 113.00953337401403 57.03806068979017 125.99922523043797 H 0.0 **** 0.06
17141 C 145.93879219012354 106.03265822795828 136.41221854315825 C 0.0 **** -0.24
17142 H 146.5449160482833 106.90413936288599 136.6581816399845 H 0.0 **** 0.06
17143 H 146.56844175879687 105.27041967383468 135.95272732151653 H 0.0 **** 0.06
17144 H 145.15101568248195 106.32178349035445 135.7161796552001 H 0.0 **** 0.06
17145 H 145.4899420565229 105.6331774643723 137.32196853903747 H 0.0 **** 0.06
17146 C 89.96193160583617 80.27582876370087 33.496343418798205 C 0.0 **** -0.24
17147 H 90.25815865201453 79.33799794831907 33.025224230119846 H 0.0 **** 0.06
17148 H 88.97451333805877 80.1605738306879 33.94374909232735 H 0.0 **** 0.06
17149 H 89.93112881221897 81.0653291830871 32.74514993505301 H 0.0 **** 0.06
17150 H 90.68431198031247 80.53712067625287 34.26935537418046 H 0.0 **** 0.06
17151 C 171.51127913827708 10.117046870028446 112.70644384127299 C 0.0 **** -0.24
17152 H 171.82790245659925 10.697555646029798 111.84063926299645 H 0.0 **** 0.06
17153 H 171.55133380554747 9.054251136657996 112.46623927396688 H 0.0 **** 0.06
17154 H 170.49072362109055 10.391593681297593 112.97448462945819 H 0.0 **** 0.06
17155 H 172.175004286979 10.324895395872005 113.54581401275045 H 0.0 **** 0.06
17156 C 57.581491678322166 120.96216739342913 58.15393531403657 C 0.0 **** -0.24
17157 H 57.1083570291448 121.55707297855207 58.93501489105675 H 0.0 **** 0.06
17158 H 58.15782078754559 120.15665586810081 58.608395752046036 H 0.0 **** 0.06
17159 H 58.24419975319448 121.59743085093385 57.56527519227056 H 0.0 **** 0.06
17160 H 56.81378855312995 120.5395321364216 57.505421840310476 H 0.0 **** 0.06
17161 C 95.40911505252858 150.02561223748765 53.94580198797257 C 0.0 **** -0.24
17162 H 96.36303908379436 149.68186769993352 54.34424391432606 H 0.0 **** 0.06
17163 H 94.72595022456063 149.18130743405888 53.856703361943744 H 0.0 **** 0.06
17164 H 95.5663708689563 150.4714292199897 52.9629443055631 H 0.0 **** 0.06
17165 H 94.98166019749193 150.77039165778453 54.61783349647516 H 0.0 **** 0.06
17166 C 147.4936518766756 50.80854312000592 30.577818402917742 C 0.0 **** -0.24
17167 H 148.5117521220506 50.43029064261266 30.493229492731388 H 0.0 **** 0.06
17168 H 147.1522312633391 50.70537835381654 31.60855279967204 H 0.0 **** 0.06
17169 H 146.83855772439193 50.23714509311067 29.91924468578381 H 0.0 **** 0.06
17170 H 147.4716714671304 51.859165844146986 30.290438713145505 H 0.0 **** 0.06
17171 C 179.77908833803065 2.82120102579362 9.332557852054208 C 0.0 **** -0.24
17172 H 180.48833681079688 3.598814067881122 9.047370287038348 H 0.0 **** 0.06
17173 H 179.87491787282292 1.9752542326835751 8.65110270781642 H 0.0 **** 0.06
17174 H 178.76539795307855 3.2171921979392835 9.279849836884154 H 0.0 **** 0.06
17175 H 179.98949827159527 2.494461272421958 10.350945871286854 H 0.0 **** 0.06
17176 C 95.28959657869854 27.25341477825387 80.02884851570201 C 0.0 **** -0.24
17177 H 94.46603229287757 26.689642065097317 79.59265072186919 H 0.0 **** 0.06
17178 H 94.9491236377508 27.7497563426533 80.93831738459671 H 0.0 **** 0.06
17179 H 95.63783728114561 28.000853028846876 79.31537611988747 H 0.0 **** 0.06
17180 H 96.10679919333563 26.572614895837845 80.26967791536826 H 0.0 **** 0.06
17181 C 17.510532044246986 95.64642307019687 98.57936392869857 C 0.0 **** -0.24
17182 H 16.5844974893958 95.57786523732489 98.0066185718793 H 0.0 **** 0.06
17183 H 17.52705064249625 94.8634936538636 99.33759082718626 H 0.0 **** 0.06
17184 H 17.56577039022295 96.62160548361283 99.06300774908453 H 0.0 **** 0.06
17185 H 18.361153850554416 95.52317202279801 97.90957659908247 H 0.0 **** 0.06
17186 C 39.88728724789843 121.33502900130965 93.98975986444464 C 0.0 **** -0.24
17187 H 39.562296879959376 121.42454468760796 95.02694191086641 H 0.0 **** 0.06
17188 H 39.0190712922103 121.1732289827889 93.35015280102755 H 0.0 **** 0.06
17189 H 40.57135835776057 120.49202156378529 93.89533780122088 H 0.0 **** 0.06
17190 H 40.3953135373888 122.251678956222 93.68831743240105 H 0.0 **** 0.06
17191 C 47.765071111692535 34.05360996541333 5.50890166811115 C 0.0 **** -0.24
17192 H 46.83956899228728 34.560334161214314 5.783572008759279 H 0.0 **** 0.06
17193 H 48.44824032987911 34.76930469700433 5.05259452339385 H 0.0 **** 0.06
17194 H 47.54399341796861 33.256793033813295 4.798340053178464 H 0.0 **** 0.06
17195 H 48.2243625909103 33.62816088383835 6.401199701587643 H 0.0 **** 0.06
17196 C 11.616695717189323 93.32438867525879 152.13065069390245 C 0.0 **** -0.24
17197 H 11.904601599262577 94.34674120473427 152.3755687847076 H 0.0 **** 0.06
17198 H 10.5313100060715 93.26008081027332 152.06217668585376 H 0.0 **** 0.06
17199 H 11.972678563035856 92.65125986746328 152.91075081038005 H 0.0 **** 0.06
17200 H 12.059830459362004 93.04144471335151 151.17683224639902 H 0.0 **** 0.06
17201 C 121.1899546278098 185.36728823220784 57.3019469177101 C 0.0 **** -0.24
17202 H 121.12559752445183 185.1416349249605 56.238083636617034 H 0.0 **** 0.06
17203 H 120.61509867094718 184.6305276100494 57.86469714980336 H 0.0 **** 0.06
17204 H 120.785383330361 186.36220218784337 57.487170142205514 H 0.0 **** 0.06
17205 H 122.23290287699378 185.33388849940792 57.618537812908755 H 0.0 **** 0.06
17206 C 42.16343874929322 171.48626507232564 44.31436664209541 C 0.0 **** -0.24
17207 H 41.82262943636931 170.7644957250456 43.571986424184885 H 0.0 **** 0.06
17208 H 41.49083093851317 172.3434585680122 44.32194197913782 H 0.0 **** 0.06
17209 H 43.17179041647273 171.81656184987793 44.06462813760257 H 0.0 **** 0.06
17210 H 42.16820238545904 171.01906551580947 45.29976010409462 H 0.0 **** 0.06
17211 C 156.4438955750328 104.6166713010171 17.222044498489623 C 0.0 **** -0.24
17212 H 156.6615957727921 103.6691529086246 17.715147823323463 H 0.0 **** 0.06
17213 H 156.50639344492663 104.48573072067069 16.141128693845786 H 0.0 **** 0.06
17214 H 157.16693166961477 105.36680603090485 17.53968897529262 H 0.0 **** 0.06
17215 H 155.43954321872218 104.94360620134097 17.49053335956077 H 0.0 **** 0.06
17216 C 23.22580519040241 68.67649429541595 82.62574601934324 C 0.0 **** -0.24
17217 H 24.059345582121125 68.60264018553977 83.32423392169007 H 0.0 **** 0.06
17218 H 22.304617084757865 68.86176520503032 83.17897070132341 H 0.0 **** 0.06
17219 H 23.133871398961475 67.74392756455241 82.06862947514803 H 0.0 **** 0.06
17220 H 23.40496829884586 69.49749353388809 81.93204566914316 H 0.0 **** 0.06
17221 C 58.44266313060217 108.14777464236147 110.01180691808469 C 0.0 **** -0.24
17222 H 59.376265308456254 107.76782071232645 109.5968884337978 H 0.0 **** 0.06
17223 H 57.651901623657864 108.06133413257879 109.26557727615307 H 0.0 **** 0.06
17224 H 58.56777330417276 109.19473589977594 110.2888176459993 H 0.0 **** 0.06
17225 H 58.173961515648614 107.56801366873049 110.89505718132028 H 0.0 **** 0.06
17226 C 33.93805196697524 105.86287347282835 147.15854153550882 C 0.0 **** -0.24
17227 H 33.07423401106847 106.06599335661788 147.79122092169183 H 0.0 **** 0.06
17228 H 33.6084201204816 105.38162778171055 146.23776534483147 H 0.0 **** 0.06
17229 H 34.62792775363556 105.20459094856828 147.6859122426195 H 0.0 **** 0.06
17230 H 34.44162598271532 106.79928180441682 146.9192676328926 H 0.0 **** 0.06
17231 C 64.56581789794662 150.62867126846493 15.182246834900738 C 0.0 **** -0.24
17232 H 64.9861217253789 151.2372039753547 14.382391868837885 H 0.0 **** 0.06
17233 H 65.32549154449595 150.45300651389874 15.943714628299574 H 0.0 **** 0.06
17234 H 64.23247353723184 149.6735988536766 14.774466723685975 H 0.0 **** 0.06
17235 H 63.71785715411825 151.148251018895 15.62782377459142 H 0.0 **** 0.06
17236 C 153.68040804104723 139.45133512032527 98.41199592220359 C 0.0 **** -0.24
17237 H 152.78491570467872 139.5430538522337 97.79680852834672 H 0.0 **** 0.06
17238 H 153.64859383091994 140.19097084668357 99.21197917838701 H 0.0 **** 0.06
17239 H 154.5634068509118 139.62004592031275 97.79440368839845 H 0.0 **** 0.06
17240 H 153.72397341448752 138.45089736387575 98.84190952341343 H 0.0 **** 0.06
17241 C 92.5184181263396 90.03029313751267 61.05557856868489 C 0.0 **** -0.24
17242 H 93.54140041574216 89.66006170737705 60.99211775944684 H 0.0 **** 0.06
17243 H 92.31515794084338 90.36588037308707 62.072604562363125 H 0.0 **** 0.06
17244 H 91.82581673724222 89.23021706684995 60.79132301351643 H 0.0 **** 0.06
17245 H 92.39009765252659 90.86323549140945 60.36508582575186 H 0.0 **** 0.06
17246 C 46.3315143238496 54.12370499237909 12.43925931771281 C 0.0 **** -0.24
17247 H 47.01338192275935 53.29966434133388 12.230925622430277 H 0.0 **** 0.06
17248 H 46.55021323254988 54.95402611479062 11.766372973603353 H 0.0 **** 0.06
17249 H 46.458263763003856 54.449230952612 13.47139921782778 H 0.0 **** 0.06
17250 H 45.30437899510417 53.792567534791644 12.28542054052329 H 0.0 **** 0.06
17251 C 170.40916192618602 112.17080545774208 9.975501021630059 C 0.0 **** -0.24
17252 H 170.53809405027516 111.0924232966632 10.07246908770005 H 0.0 **** 0.06
17253 H 170.1811084541743 112.41800018970447 8.939108374078536 H 0.0 **** 0.06
17254 H 171.3273549683708 112.67411027188435 10.276348383162784 H 0.0 **** 0.06
17255 H 169.58960538982143 112.496926864358 10.616659582394057 H 0.0 **** 0.06
17256 C 132.10594043686325 134.74141397648424 182.2363658961625 C 0.0 **** -0.24
17257 H 133.12783409132714 135.09644021858412 182.10282904504777 H 0.0 **** 0.06
17258 H 131.87526802775812 134.00183717800832 181.46929629446214 H 0.0 **** 0.06
17259 H 131.4156159835698 135.58114512925545 182.15131224283266 H 0.0 **** 0.06
17260 H 132.00428549215565 134.28648523276604 183.22142450458074 H 0.0 **** 0.06
17261 C 178.5040430763874 32.65078485019873 45.25027072075089 C 0.0 **** -0.24
17262 H 178.48775844459004 33.7309433091842 45.10709997400362 H 0.0 **** 0.06
17263 H 177.62838384311556 32.20754091063395 44.7739156732615 H 0.0 **** 0.06
17264 H 178.49221955422578 32.42508183406585 46.315637167688834 H 0.0 **** 0.06
17265 H 179.4081417464145 32.23939676082557 44.80145361185161 H 0.0 **** 0.06
17266 C 42.4884734784863 150.87479436660936 14.965857114186292 C 0.0 **** -0.24
17267 H 42.3641228969141 151.0930711057725 16.025968208642063 H 0.0 **** 0.06
17268 H 41.857447070317676 150.02891207893094 14.693280173640353 H 0.0 **** 0.06
17269 H 43.53212862170352 150.62879727992078 14.766127857006168 H 0.0 **** 0.06
17270 H 42.20190628590123 151.7475900021642 14.379244479160135 H 0.0 **** 0.06
17271 C 31.486225123153957 141.67090920564925 114.99052650780168 C 0.0 **** -0.24
17272 H 30.730576777680398 141.25412783547864 115.6563855245033 H 0.0 **** 0.06
17273 H 31.00599338464626 142.04886217193058 114.08733028116207 H 0.0 **** 0.06
17274 H 32.203182945301776 140.89414112653827 114.72383153940176 H 0.0 **** 0.06
17275 H 32.00514738498721 142.4865056886497 115.49455868613954 H 0.0 **** 0.06
17276 C 111.84236366269806 177.02859358928572 60.16854185264535 C 0.0 **** -0.24
17277 H 110.94085008890085 177.57889126493455 59.90029179564023 H 0.0 **** 0.06
17278 H 111.83892200925521 176.82438473852127 61.23953451332983 H 0.0 **** 0.06
17279 H 112.72055230847326 177.62283610383844 59.914581387856046 H 0.0 **** 0.06
17280 H 111.86989435653987 176.08722806887073 59.619170942653525 H 0.0 **** 0.06
17281 C 128.5797730483685 110.46193508775384 118.66181365825248 C 0.0 **** -0.24
17282 H 129.1755273730895 109.76089117371062 119.24627030784283 H 0.0 **** 0.06
17283 H 129.23664401269662 111.05719093269319 118.0282970009821 H 0.0 **** 0.06
17284 H 128.02866919480408 111.11996967483388 119.33482140458803 H 0.0 **** 0.06
17285 H 127.87647013667886 109.90875281769301 118.03926265108753 H 0.0 **** 0.06
17286 C 44.0899184155723 101.92217775085767 75.64691436710791 C 0.0 **** -0.24
17287 H 44.29013864146583 101.21976920944668 76.4556550246212 H 0.0 **** 0.06
17288 H 45.03253766454708 102.30782351737527 75.25843958151518 H 0.0 **** 0.06
17289 H 43.4869209263278 102.74744094267625 76.02435976898926 H 0.0 **** 0.06
17290 H 43.54987240590532 101.41195732060261 74.8492015186398 H 0.0 **** 0.06
17291 C 119.54792579222449 68.89187921661355 96.07240756915371 C 0.0 **** -0.24
17292 H 120.3340120166455 68.22479705388284 96.4248251837812 H 0.0 **** 0.06
17293 H 119.95107727974631 69.55458481207549 95.30587801060898 H 0.0 **** 0.06
17294 H 119.17443535698062 69.48572522812287 96.90674154098735 H 0.0 **** 0.06
17295 H 118.73272215309375 68.3036498577465 95.6525938253198 H 0.0 **** 0.06
17296 C 152.57338654362275 11.956747667796733 11.024322124814425 C 0.0 **** -0.24
17297 H 151.67471311205418 12.56234613307906 10.91055962759804 H 0.0 **** 0.06
17298 H 153.45098089948036 12.562129415015121 10.797387219354746 H 0.0 **** 0.06
17299 H 152.5290195207923 11.10848194622045 10.34083532148513 H 0.0 **** 0.06
17300 H 152.6390720844788 11.592931522882829 12.050437431397476 H 0.0 **** 0.06
17301 C 84.91595952643905 158.14432907156237 181.71827371198646 C 0.0 **** -0.24
17302 H 83.8423974566249 158.33182699829354 181.73155404141832 H 0.0 **** 0.06
17303 H 85.40359142935824 158.77376141525895 182.46201115947738 H 0.0 **** 0.06
17304 H 85.31263708453099 158.37605841987613 180.72894827026983 H 0.0 **** 0.06
17305 H 85.10420742700552 157.09615555900288 181.94864375305178 H 0.0 **** 0.06
17306 C 79.80199326176115 107.41719854666049 172.47274115937125 C 0.0 **** -0.24
17307 H 79.92074412119256 108.48418164133209 172.66138546292444 H 0.0 **** 0.06
17308 H 78.74915262724308 107.14756139850321 172.5613853522438 H 0.0 **** 0.06
17309 H 80.38498640912273 106.85258705919499 173.200513944634 H 0.0 **** 0.06
17310 H 80.15398544398663 107.18485976109973 171.46665935131966 H 0.0 **** 0.06
17311 C 167.74563376604016 170.81770760844307 28.701710988161068 C 0.0 **** -0.24
17312 H 167.72017085906646 169.7306595509936 28.7818080548237 H 0.0 **** 0.06
17313 H 167.8523199457431 171.10265851902068 27.6551817752688 H 0.0 **** 0.06
17314 H 168.591247319746 171.2036592902345 29.271245348370485 H 0.0 **** 0.06
17315 H 166.82014259893594 171.23287235321922 29.099085704779384 H 0.0 **** 0.06
17316 C 34.20435501916862 20.533978057217034 155.24413434301243 C 0.0 **** -0.24
17317 H 35.13614969843229 20.45552550501717 154.68443064894396 H 0.0 **** 0.06
17318 H 34.21031783081514 21.4506609841019 155.83360123143558 H 0.0 **** 0.06
17319 H 34.10594648863923 19.674825724514378 155.90832137618747 H 0.0 **** 0.06
17320 H 33.363519675776075 20.554018835589225 154.5500646913642 H 0.0 **** 0.06
17321 C 59.25760777019798 73.09228906168579 55.34177650990432 C 0.0 **** -0.24
17322 H 59.84929296030373 73.95029208199037 55.65981864407814 H 0.0 **** 0.06
17323 H 58.44238000898349 72.93147707743435 56.04794263174057 H 0.0 **** 0.06
17324 H 59.89118086508813 72.20632867824986 55.30870568992617 H 0.0 **** 0.06
17325 H 58.846627802943885 73.28301128328553 54.350105254653215 H 0.0 **** 0.06
17326 C 130.72743095303736 84.7861483352207 171.67395247971336 C 0.0 **** -0.24
17327 H 130.98248255260086 83.75285359937506 171.91231789220248 H 0.0 **** 0.06
17328 H 129.67823360926445 84.84316873579611 171.38489027338164 H 0.0 **** 0.06
17329 H 131.35115443211345 85.13339406176819 170.85072786232476 H 0.0 **** 0.06
17330 H 130.8987151272596 85.41227986358321 172.55007942582725 H 0.0 **** 0.06
17331 C 36.579325246131674 82.63869250200354 128.64719922788527 C 0.0 **** -0.24
17332 H 35.983812288243655 82.74777678003858 129.55331141048367 H 0.0 **** 0.06
17333 H 37.34684985992999 81.88077891012257 128.80455335798 H 0.0 **** 0.06
17334 H 37.052036223804805 83.59089619984483 128.40735177207938 H 0.0 **** 0.06
17335 H 35.93376482460286 82.33593611487127 127.82262316638798 H 0.0 **** 0.06
17336 C 60.725592890982455 66.99240182535343 52.47165043233318 C 0.0 **** -0.24
17337 H 60.95796782093146 68.05617725688836 52.43477146007177 H 0.0 **** 0.06
17338 H 60.91987552242588 66.61219792844392 53.47554617825406 H 0.0 **** 0.06
17339 H 61.350021374136276 66.4591721898545 51.75421499298105 H 0.0 **** 0.06
17340 H 59.67512881567444 66.8408444779386 52.22243772948866 H 0.0 **** 0.06
17341 C 129.5787770677474 11.57862923354719 170.0627010597689 C 0.0 **** -0.24
17342 H 130.38577438097826 11.614766196359966 170.7940339540021 H 0.0 **** 0.06
17343 H 129.91493450771088 12.031274961829524 169.1299013057715 H 0.0 **** 0.06
17344 H 128.71825787149203 12.128510493116664 170.44332642345887 H 0.0 **** 0.06
17345 H 129.2972195888372 10.541328067574113 169.88213518623172 H 0.0 **** 0.06
17346 C 169.14028048203122 129.53324386072978 173.67800460210623 C 0.0 **** -0.24
17347 H 169.23047994348468 129.71791188025242 174.74892998143193 H 0.0 **** 0.06
17348 H 169.94964962474174 128.87975961144406 173.35261516247635 H 0.0 **** 0.06
17349 H 169.19875212048723 130.4799058221151 173.14013604839877 H 0.0 **** 0.06
17350 H 168.1816410605316 129.05626132358827 173.471283751584 H 0.0 **** 0.06
17351 C 102.78271101111177 174.86299403595115 179.2556790246675 C 0.0 **** -0.24
17352 H 103.36205333803393 174.27597089574158 178.54271221231176 H 0.0 **** 0.06
17353 H 102.0014212193007 174.2392465518878 179.69034407747165 H 0.0 **** 0.06
17354 H 102.32745648340743 175.7102087974585 178.7428878164722 H 0.0 **** 0.06
17355 H 103.43953905158234 175.2271908806951 180.04610167411056 H 0.0 **** 0.06
17356 C 1.8436147706196948 93.46427724642257 108.67788873416025 C 0.0 **** -0.24
17357 H 1.5706897677443692 93.53979523725445 107.6251763582889 H 0.0 **** 0.06
17358 H 2.685914286539912 94.12593336727537 108.8818448202638 H 0.0 **** 0.06
17359 H 2.124893704974056 92.43660459705552 108.90620744051832 H 0.0 **** 0.06
17360 H 0.9937632174565181 93.75463418851643 109.29511116777728 H 0.0 **** 0.06
17361 C 165.08619703199975 28.01281669167136 169.23910715875306 C 0.0 **** -0.24
17362 H 165.87633569451992 28.737263162468963 169.04382134819684 H 0.0 **** 0.06
17363 H 165.20705927277413 27.156043630106268 168.5759227105577 H 0.0 **** 0.06
17364 H 164.11578312200282 28.477015870852085 169.0596096358826 H 0.0 **** 0.06
17365 H 165.14410589783768 27.68283812419415 170.27560850160242 H 0.0 **** 0.06
17366 C 183.69249496656394 149.54025657487895 81.53940974268791 C 0.0 **** -0.24
17367 H 184.11645100766646 148.80631543306228 82.22290295862902 H 0.0 **** 0.06
17368 H 183.68843993699352 149.13570535065384 80.52734639329404 H 0.0 **** 0.06
17369 H 184.29337443180356 150.44988372593178 81.5649382156717 H 0.0 **** 0.06
17370 H 182.67122277678428 149.77129480721644 81.8426420271204 H 0.0 **** 0.06
17371 C 177.29602969530254 152.24341663189915 150.87411530849468 C 0.0 **** -0.24
17372 H 176.44761005189176 151.65467336131326 150.52497803047376 H 0.0 **** 0.06
17373 H 177.69627894986917 152.83030778646454 150.04714331347532 H 0.0 **** 0.06
17374 H 178.06875707571305 151.57620952815722 151.25448540607974 H 0.0 **** 0.06
17375 H 176.9697970902635 152.91350923757085 151.67020737474468 H 0.0 **** 0.06
17376 C 84.76913584342424 14.93401593568072 145.09107172892706 C 0.0 **** -0.24
17377 H 85.56034123134913 14.185294131324753 145.12526308094493 H 0.0 **** 0.06
17378 H 85.07737949745632 15.759761106018601 144.45002015567133 H 0.0 **** 0.06
17379 H 84.57731382564708 15.305781701370194 146.09685145382485 H 0.0 **** 0.06
17380 H 83.86092329706179 14.482872597893447 144.69038726074268 H 0.0 **** 0.06
17381 C 67.28045685484176 40.417299296225536 139.7240937227342 C 0.0 **** -0.24
17382 H 66.26834846929637 40.091194902597096 139.9620157354177 H 0.0 **** 0.06
17383 H 67.28074939725576 41.49070005150364 139.53244269505808 H 0.0 **** 0.06
17384 H 67.63437440554648 39.889654682604714 138.83869388095758 H 0.0 **** 0.06
17385 H 67.93947547212491 40.19928994329692 140.56465350886612 H 0.0 **** 0.06
17386 C 20.50610704346297 106.90658806691573 26.587947042533642 C 0.0 **** -0.24
17387 H 20.995711754624118 107.48229759822323 25.803632640563535 H 0.0 **** 0.06
17388 H 21.22613149484649 106.67656913885315 27.373814376032755 H 0.0 **** 0.06
17389 H 20.116829445572066 105.97856005578524 26.168427862934095 H 0.0 **** 0.06
17390 H 19.68528365401844 107.48796874902956 27.006841787558585 H 0.0 **** 0.06
17391 C 168.4043691816516 67.32076587933332 26.8585716333951 C 0.0 **** -0.24
17392 H 168.71244787176963 66.32679786811919 27.185183808066043 H 0.0 **** 0.06
17393 H 169.24517273525052 68.00919945214673 26.948765791443947 H 0.0 **** 0.06
17394 H 167.58071899370623 67.66838211487571 27.482387063499047 H 0.0 **** 0.06
17395 H 168.07981294041434 67.2770767954482 25.819349880433734 H 0.0 **** 0.06
17396 C 153.3563548706776 52.62653887542628 33.94218555298113 C 0.0 **** -0.24
17397 H 153.66559462580307 53.17516447397142 33.05246644416505 H 0.0 **** 0.06
17398 H 153.9612453533689 52.94361772992214 34.79216901576598 H 0.0 **** 0.06
17399 H 153.49336408580962 51.55852247938178 33.77569293317379 H 0.0 **** 0.06
17400 H 152.30541989270364 52.830665343709526 34.147123155591714 H 0.0 **** 0.06
17401 C 59.8888806421063 153.1711086071648 121.4947882117995 C 0.0 **** -0.24
17402 H 60.10357463777899 153.50547471603653 120.47912626492594 H 0.0 **** 0.06
17403 H 59.37213251760261 153.96347201571095 122.03506493242905 H 0.0 **** 0.06
17404 H 60.82425879848324 152.93393903606085 122.00389696096094 H 0.0 **** 0.06
17405 H 59.25909370873512 152.2831721217016 121.45910157674838 H 0.0 **** 0.06
17406 C 32.43161082526291 71.8681207056609 10.670573606559806 C 0.0 **** -0.24
17407 H 33.4559427543889 71.57441476639245 10.899132734444656 H 0.0 **** 0.06
17408 H 32.1604255054595 71.50000796276181 9.682046496207853 H 0.0 **** 0.06
17409 H 32.353533715875756 72.9553081262123 10.689170612349564 H 0.0 **** 0.06
17410 H 31.758102452337198 71.44338827490517 11.414800851243932 H 0.0 **** 0.06
17411 C 157.0749145652346 184.59965926267893 1.1346481870045295 C 0.0 **** -0.24
17412 H 156.7715237056419 185.51664888093188 0.6305892994691931 H 0.0 **** 0.06
17413 H 157.66660091672625 183.9890665041467 0.45194683938885305 H 0.0 **** 0.06
17414 H 156.18945942039372 184.04530086071725 1.4439947331416647 H 0.0 **** 0.06
17415 H 157.67331753695103 184.84862397694104 2.011392638791108 H 0.0 **** 0.06
17416 C 174.86239484334698 66.50522419451408 175.93458012240933 C 0.0 **** -0.24
17417 H 173.94917655932028 66.89793845631138 176.381528926969 H 0.0 **** 0.06
17418 H 175.40124712970837 67.31281062329596 175.43974103747462 H 0.0 **** 0.06
17419 H 174.60734646451397 65.7371586316139 175.2031869152655 H 0.0 **** 0.06
17420 H 175.49075047838127 66.07156988121623 176.71217094133047 H 0.0 **** 0.06
17421 C 100.82098440091603 73.51474292888707 12.927049636771905 C 0.0 **** -0.24
17422 H 101.3312068929993 73.74701986762761 13.862348422873339 H 0.0 **** 0.06
17423 H 100.27301134607323 72.57853797656628 13.035632289945475 H 0.0 **** 0.06
17424 H 101.55542167507197 73.41595309748118 12.12803160816231 H 0.0 **** 0.06
17425 H 100.12552729302588 74.3181892202416 12.683905983263877 H 0.0 **** 0.06
17426 C 130.14190881268212 42.773299471545855 5.481249741200031 C 0.0 **** -0.24
17427 H 129.32163934361796 42.358701306027186 4.896071392838451 H 0.0 **** 0.06
17428 H 130.601511580999 41.98144349785687 6.072762866077653 H 0.0 **** 0.06
17429 H 129.75846436610652 43.5478838673431 6.145256314048652 H 0.0 **** 0.06
17430 H 130.88472613081893 43.2045987601271 4.810933625844598 H 0.0 **** 0.06
17431 C 165.7179200000053 56.10137032432408 47.10986140900741 C 0.0 **** -0.24
17432 H 166.409267644071 56.28477645875277 47.93227248906044 H 0.0 **** 0.06
17433 H 164.70686107531992 56.36916104461504 47.41842966801403 H 0.0 **** 0.06
17434 H 165.7473856282681 55.04537884809825 46.83923219791063 H 0.0 **** 0.06
17435 H 166.00815481545095 56.7048366328233 46.24999658151563 H 0.0 **** 0.06
17436 C 88.99891979021373 83.82434715983527 92.44936074363268 C 0.0 **** -0.24
17437 H 89.23615165434671 84.53257255186094 93.24351955081956 H 0.0 **** 0.06
17438 H 89.8908309276917 83.64073781837186 91.84931614138053 H 0.0 **** 0.06
17439 H 88.21361390403888 84.23771476793951 91.81600044783924 H 0.0 **** 0.06
17440 H 88.6560765349962 82.88705629421298 92.88787722562829 H 0.0 **** 0.06
17441 C 51.600301413571515 81.6216605017281 167.18951196031594 C 0.0 **** -0.24
17442 H 52.003258247252845 81.96095470208978 168.14381725804284 H 0.0 **** 0.06
17443 H 50.641811421231296 81.12988863339906 167.35394953048223 H 0.0 **** 0.06
17444 H 52.29613045852956 80.9191186220797 166.73080921127885 H 0.0 **** 0.06
17445 H 51.46088637054993 82.47774901801245 166.5297572718987 H 0.0 **** 0.06
17446 C 107.18706170614836 131.11414853524758 20.386808638776124 C 0.0 **** -0.24
17447 H 106.28470307723806 131.16111989200357 19.777749575464256 H 0.0 **** 0.06
17448 H 108.01217994825548 131.58275279073723 19.849273214407226 H 0.0 **** 0.06
17449 H 107.43273861686266 130.07288183100877 20.59425226401092 H 0.0 **** 0.06
17450 H 107.01897319831203 131.641137847749 21.326399453212147 H 0.0 **** 0.06
17451 C 59.49825859502687 77.56987096166449 84.12791518355394 C 0.0 **** -0.24
17452 H 59.73893565553654 76.98520578220935 85.01576908045891 H 0.0 **** 0.06
17453 H 58.41664395667077 77.60081947460013 83.9964415069585 H 0.0 **** 0.06
17454 H 59.95888691673845 77.10927456091476 83.25363154374432 H 0.0 **** 0.06
17455 H 59.87921334046288 78.58385218503346 84.24703238747392 H 0.0 **** 0.06
17456 C 62.065855145580656 138.49363586124792 108.5551840349991 C 0.0 **** -0.24
17457 H 62.830586102438645 138.26290974761116 109.2974659290763 H 0.0 **** 0.06
17458 H 61.42198284106675 137.6250510064085 108.41626256871557 H 0.0 **** 0.06
17459 H 62.54321088114588 138.74924240143912 107.60939592338308 H 0.0 **** 0.06
17460 H 61.46763358952586 139.33726601823196 108.90006010210054 H 0.0 **** 0.06
17461 C 155.03503661144651 98.23761685571428 110.52799373746001 C 0.0 **** -0.24
17462 H 155.40047978295982 97.77640726834737 109.61098100841326 H 0.0 **** 0.06
17463 H 154.7308879458874 97.46042713797068 111.2297060115194 H 0.0 **** 0.06
17464 H 154.180563028268 98.87483453663272 110.29843131678632 H 0.0 **** 0.06
17465 H 155.82723995814965 98.83869409856364 110.97304917272339 H 0.0 **** 0.06
17466 C 65.94934982517162 95.87409638472305 172.20232527042495 C 0.0 **** -0.24
17467 H 66.35586459701277 95.03802380811642 172.7707650057336 H 0.0 **** 0.06
17468 H 64.91293700277916 95.6630207487696 171.93873676020615 H 0.0 **** 0.06
17469 H 66.53381452605544 96.01455067008364 171.29357395847563 H 0.0 **** 0.06
17470 H 65.99283425017425 96.77989478406671 172.8074085186428 H 0.0 **** 0.06
17471 C 41.68031861778525 61.1898358374407 138.3018955459503 C 0.0 **** -0.24
17472 H 41.182554064324364 61.5266287980601 137.39278152451578 H 0.0 **** 0.06
17473 H 42.7557587589896 61.34108402944308 138.20455146229062 H 0.0 **** 0.06
17474 H 41.475000073750095 60.13030329821184 138.45704217058966 H 0.0 **** 0.06
17475 H 41.30897685497496 61.7610787631166 139.1522543872846 H 0.0 **** 0.06
17476 C 123.5177926710728 72.60430360116942 161.5384553514172 C 0.0 **** -0.24
17477 H 123.59859223419362 73.68820242558695 161.45432366485355 H 0.0 **** 0.06
17478 H 123.72805168225152 72.30271200805784 162.5648208002332 H 0.0 **** 0.06
17479 H 124.23689466646364 72.13357714018136 160.86684212698304 H 0.0 **** 0.06
17480 H 122.50969145623766 72.29260149886554 161.26651402428217 H 0.0 **** 0.06
17481 C 33.243876836589195 164.74265997302757 36.19439527196511 C 0.0 **** -0.24
17482 H 32.50931818084439 165.488862144039 36.4971910181538 H 0.0 **** 0.06
17483 H 32.838014183441985 164.14558408758273 35.3778964955483 H 0.0 **** 0.06
17484 H 33.473111366964304 164.0943984719917 37.04026105563767 H 0.0 **** 0.06
17485 H 34.15363299203095 165.24318775881994 35.86235153268436 H 0.0 **** 0.06
17486 C 8.404641058496011 134.52560063485816 170.65202442699 C 0.0 **** -0.24
17487 H 9.303102862157388 135.00105807061112 170.2599173610551 H 0.0 **** 0.06
17488 H 7.702698846932712 135.29150428123728 170.9835770289847 H 0.0 **** 0.06
17489 H 8.669702309880591 133.8855325838516 171.4933458744885 H 0.0 **** 0.06
17490 H 7.941589611439738 133.9234656760446 169.86948864972197 H 0.0 **** 0.06
17491 C 42.04339197177168 18.10328819527595 98.75702412593232 C 0.0 **** -0.24
17492 H 42.92534771347313 18.734500637503857 98.64826620341084 H 0.0 **** 0.06
17493 H 41.15064819794985 18.68372741953368 98.52676732312823 H 0.0 **** 0.06
17494 H 41.984170209336625 17.735388538379652 99.78177678395066 H 0.0 **** 0.06
17495 H 42.11451771708725 17.258040811859388 98.07200633897303 H 0.0 **** 0.06
17496 C 106.91492740767207 32.392000424598294 115.95853234464995 C 0.0 **** -0.24
17497 H 106.55362267507645 32.92380631280574 116.8386344675021 H 0.0 **** 0.06
17498 H 107.80584424873378 32.88858532075757 115.57414844032336 H 0.0 **** 0.06
17499 H 106.13994082559832 32.38895247552992 115.19249262359524 H 0.0 **** 0.06
17500 H 107.16056229239094 31.364864451768526 116.23050217728449 H 0.0 **** 0.06
17501 C 85.85486399541257 78.53327707709644 137.2855751807977 C 0.0 **** -0.24
17502 H 84.94555485029876 77.94788548724857 137.4211182489944 H 0.0 **** 0.06
17503 H 85.79223046606377 79.44510263475313 137.88119385601146 H 0.0 **** 0.06
17504 H 85.9657517875935 78.7933810276602 136.23355656838947 H 0.0 **** 0.06
17505 H 86.71511090627983 77.94674305379131 137.60851706552597 H 0.0 **** 0.06
17506 C 65.87721837684876 96.90748131442916 74.34099215251528 C 0.0 **** -0.24
17507 H 65.89322362473956 96.98563944234081 73.25337984518559 H 0.0 **** 0.06
17508 H 66.54581125264946 97.65478256505548 74.76823303094028 H 0.0 **** 0.06
17509 H 66.20562064970807 95.91185634007059 74.63780724469754 H 0.0 **** 0.06
17510 H 64.86347882826288 97.07814268796369 74.70120063092136 H 0.0 **** 0.06
17511 C 3.3398260475885877 42.34753337445456 173.4806712732351 C 0.0 **** -0.24
17512 H 3.4207754155839893 42.601825314822094 174.53757532568946 H 0.0 **** 0.06
17513 H 3.298100440898338 41.26409289966655 173.3699867306433 H 0.0 **** 0.06
17514 H 4.206960794803081 42.73555439438293 172.94651738706784 H 0.0 **** 0.06
17515 H 2.4324839277220462 42.790891083594246 173.07004054963093 H 0.0 **** 0.06
17516 C 132.80306646008262 155.00250675438787 64.4342349530322 C 0.0 **** -0.24
17517 H 132.20158999764095 155.91041585068487 64.46211810702385 H 0.0 **** 0.06
17518 H 133.30787533605593 154.87201684547748 65.3917973596259 H 0.0 **** 0.06
17519 H 133.54585008503278 155.0830167986369 63.64018142962715 H 0.0 **** 0.06
17520 H 132.15811405806653 154.14469285021903 64.2436383397521 H 0.0 **** 0.06
17521 C 66.5541764476699 72.69753300923173 124.26603044712543 C 0.0 **** -0.24
17522 H 65.52417348665243 72.34324529114427 124.2199274381676 H 0.0 **** 0.06
17523 H 66.6207105473528 73.53360746528494 124.9624183334246 H 0.0 **** 0.06
17524 H 66.87037323145738 73.02473017659591 123.2752322910559 H 0.0 **** 0.06
17525 H 67.20119150788837 71.88889592409072 124.60434969271252 H 0.0 **** 0.06
17526 C 35.134821417776834 86.41620390552386 118.17645197833748 C 0.0 **** -0.24
17527 H 35.799723064594446 85.55671364666357 118.08276796108503 H 0.0 **** 0.06
17528 H 35.33590280243999 86.93024557121147 119.11624227429361 H 0.0 **** 0.06
17529 H 34.09880044339286 86.07584485601147 118.16204180347684 H 0.0 **** 0.06
17530 H 35.30437396232604 87.09845627158946 117.34440272029114 H 0.0 **** 0.06
17531 C 58.50969981797755 100.58349247207919 97.09238032631525 C 0.0 **** -0.24
17532 H 57.74964987544543 101.1588817142585 97.62009108652903 H 0.0 **** 0.06
17533 H 58.97721744842481 99.88048829302669 97.78276991588272 H 0.0 **** 0.06
17534 H 59.266336085655254 101.26047708316135 96.6945012202617 H 0.0 **** 0.06
17535 H 58.0460726565 100.03397674435685 96.27302589309598 H 0.0 **** 0.06
17536 C 97.21491576568174 180.3753507879033 76.15619026048307 C 0.0 **** -0.24
17537 H 96.60047083492547 181.14085758119762 75.68231249170428 H 0.0 **** 0.06
17538 H 97.28356071136297 180.57590007357558 77.22610346109265 H 0.0 **** 0.06
17539 H 98.21221973746636 180.38889068483996 75.71906125507763 H 0.0 **** 0.06
17540 H 96.76167091803678 179.396761059978 75.99868276811634 H 0.0 **** 0.06
17541 C 97.2306713705833 127.27970540081719 82.9433526917752 C 0.0 **** -0.24
17542 H 97.64391945348267 127.82169309315663 83.79399522946869 H 0.0 **** 0.06
17543 H 96.21566013558926 127.62573261315521 82.75061271048088 H 0.0 **** 0.06
17544 H 97.2153551497931 126.21264499933113 83.16620216198754 H 0.0 **** 0.06
17545 H 97.84936755486079 127.45773623964072 82.06413576723992 H 0.0 **** 0.06
17546 C 184.63215875612994 136.18463199282917 82.56365429691017 C 0.0 **** -0.24
17547 H 185.0596786280647 135.23692196510802 82.23625266877148 H 0.0 **** 0.06
17548 H 185.10208490680319 136.49200783522883 83.49785977022276 H 0.0 **** 0.06
17549 H 183.56030881292767 136.0645384109352 82.71786703461501 H 0.0 **** 0.06
17550 H 184.8064896354742 136.94413283716636 81.80060409594314 H 0.0 **** 0.06
17551 C 43.985992226093 168.1273360615662 42.881010151377836 C 0.0 **** -0.24
17552 H 43.81212563769475 167.8557587496269 41.839959466683354 H 0.0 **** 0.06
17553 H 44.39105709272303 169.13778261456372 42.93007709939508 H 0.0 **** 0.06
17554 H 44.69552728378284 167.42937979447214 43.32532131679949 H 0.0 **** 0.06
17555 H 43.04436486222838 168.08556753930264 43.429367412763185 H 0.0 **** 0.06
17556 C 146.16535627143216 29.462175441748684 86.11273184219631 C 0.0 **** -0.24
17557 H 145.25860578247156 28.904584976464776 85.87738784585567 H 0.0 **** 0.06
17558 H 146.72778790114913 28.933121579837007 86.88316164303119 H 0.0 **** 0.06
17559 H 145.89744774670106 30.45461123581299 86.47550392675215 H 0.0 **** 0.06
17560 H 146.7763688131887 29.555936609939522 85.21544322673999 H 0.0 **** 0.06
17561 C 30.94721192455654 27.986938141038237 34.94432643187645 C 0.0 **** -0.24
17562 H 30.59144693661716 28.2934203339302 35.928076047381154 H 0.0 **** 0.06
17563 H 32.01463432180489 27.77117647620257 34.99547038914221 H 0.0 **** 0.06
17564 H 30.773633361406638 28.7915954023765 34.228915661849044 H 0.0 **** 0.06
17565 H 30.410489041172525 27.094200659354655 34.625279934734635 H 0.0 **** 0.06
17566 C 82.40429545418142 165.87204035163603 103.20719695060346 C 0.0 **** -0.24
17567 H 81.55971221098774 166.23516747345622 103.79249276753647 H 0.0 **** 0.06
17568 H 83.18697136666562 165.52025640230238 103.87879490646681 H 0.0 **** 0.06
17569 H 82.79246556553666 166.68262271812193 102.59030509679259 H 0.0 **** 0.06
17570 H 82.07815641745522 165.05253803575903 102.5675309267837 H 0.0 **** 0.06
17571 C 172.7973607493753 63.17452447307301 87.21059383948118 C 0.0 **** -0.24
17572 H 173.1169481984986 64.0625858509255 86.66420364453406 H 0.0 **** 0.06
17573 H 172.02809895674108 63.449090833897856 87.93199799671707 H 0.0 **** 0.06
17574 H 173.65106032950303 62.74487730581882 87.73422031798266 H 0.0 **** 0.06
17575 H 172.3945482913201 62.44310526634058 86.50969695660292 H 0.0 **** 0.06
17576 C 53.40746976013111 180.18144919220165 52.91901417719845 C 0.0 **** -0.24
17577 H 52.93194034325501 179.30560725846829 52.47860979334595 H 0.0 **** 0.06
17578 H 52.68086574269627 180.721490528666 53.52698156749838 H 0.0 **** 0.06
17579 H 53.77380359217045 180.83365004997384 52.12531274523678 H 0.0 **** 0.06
17580 H 54.242257048775016 179.86616506160024 53.54429846612709 H 0.0 **** 0.06
17581 C 162.23758152190783 150.3363569001092 181.93324135994908 C 0.0 **** -0.24
17582 H 161.61507223886125 149.49434892884182 181.63090524379737 H 0.0 **** 0.06
17583 H 162.4153957909596 150.98402339480697 181.07488679762332 H 0.0 **** 0.06
17584 H 163.1902040218288 149.96571634227473 182.3119580316293 H 0.0 **** 0.06
17585 H 161.73096543039452 150.90040336107634 182.71585177949203 H 0.0 **** 0.06
17586 C 23.27970483991362 9.789203222051555 3.0352640776210364 C 0.0 **** -0.24
17587 H 24.185814601009668 10.389728584003905 3.114723190929965 H 0.0 **** 0.06
17588 H 22.429297432040585 10.365159747976293 3.3980817258612888 H 0.0 **** 0.06
17589 H 23.390378007478432 8.884906166066799 3.6348745204417696 H 0.0 **** 0.06
17590 H 23.116655614414412 9.515649122644163 1.993129512342307 H 0.0 **** 0.06
17591 C 170.66205858183778 172.63865332661373 61.19055886510054 C 0.0 **** -0.24
17592 H 171.27341009484326 172.8026038932428 60.30379572044279 H 0.0 **** 0.06
17593 H 170.4468230913757 173.59680899574292 61.6653828363725 H 0.0 **** 0.06
17594 H 171.2009131857891 171.99927289932975 61.89001347820968 H 0.0 **** 0.06
17595 H 169.728079945893 172.1566185185744 60.90377726635265 H 0.0 **** 0.06
17596 C 183.17864653900506 183.69305670989806 19.756860743399656 C 0.0 **** -0.24
17597 H 184.26010265442866 183.55870728232185 19.74779131682523 H 0.0 **** 0.06
17598 H 182.74595184521462 183.0938513303159 20.558712105141282 H 0.0 **** 0.06
17599 H 182.76397180694224 183.3742977411601 18.8011631340824 H 0.0 **** 0.06
17600 H 182.945145363913 184.744852444076 19.92284057366892 H 0.0 **** 0.06
17601 C 126.44377379156107 155.15402871683406 50.1342098860743 C 0.0 **** -0.24
17602 H 127.35032839562847 155.49735014213644 49.63619331724021 H 0.0 **** 0.06
17603 H 126.46709409297408 155.45862600768072 51.18094148425672 H 0.0 **** 0.06
17604 H 126.38506257407106 154.06775612244812 50.072702284847935 H 0.0 **** 0.06
17605 H 125.57325596803635 155.59298463099816 49.646532951243216 H 0.0 **** 0.06
17606 C 38.702465162181014 18.130357336802007 53.798123871165274 C 0.0 **** -0.24
17607 H 38.927303022972964 18.927391123846604 54.506067664579206 H 0.0 **** 0.06
17608 H 37.98663360788166 17.439810386561618 54.244014506037985 H 0.0 **** 0.06
17609 H 39.61912331816944 17.594932990150056 53.55185583705719 H 0.0 **** 0.06
17610 H 38.277960297884164 18.560087489282353 52.89072209514461 H 0.0 **** 0.06
17611 C 122.13151050758567 78.07504560963582 21.356155370289684 C 0.0 **** -0.24
17612 H 122.14410418667917 77.14528990848873 20.78834283802584 H 0.0 **** 0.06
17613 H 123.1496868142457 78.34082269209767 21.639787008060324 H 0.0 **** 0.06
17614 H 121.52577886728896 77.94406023409556 22.252595197573413 H 0.0 **** 0.06
17615 H 121.70581954667632 78.86966735656824 20.742328944594504 H 0.0 **** 0.06
17616 C 90.94344063167175 147.15480209506546 37.23036584859331 C 0.0 **** -0.24
17617 H 90.96277520342063 146.11759814124832 36.895928270596954 H 0.0 **** 0.06
17618 H 91.54633479551948 147.76424091520494 36.556826446585774 H 0.0 **** 0.06
17619 H 91.34775684317391 147.21948506391948 38.24010782376999 H 0.0 **** 0.06
17620 H 89.91569676420751 147.51760880321706 37.22673354595925 H 0.0 **** 0.06
17621 C 18.318869473918618 46.8640783287465 165.00843731802468 C 0.0 **** -0.24
17622 H 17.509866005165975 46.42088477552508 165.5883728348345 H 0.0 **** 0.06
17623 H 19.232842053534206 46.29097859474879 165.16163379635742 H 0.0 **** 0.06
17624 H 18.475581504072615 47.892685263871186 165.3318263296489 H 0.0 **** 0.06
17625 H 18.054963692708256 46.85190100413098 163.9509001713758 H 0.0 **** 0.06
17626 C 92.84071325845805 99.86319112558789 168.95126775105194 C 0.0 **** -0.24
17627 H 92.53959601791395 99.02971343849765 168.3165617416123 H 0.0 **** 0.06
17628 H 92.35822039535715 99.76999355447089 169.9245936119337 H 0.0 **** 0.06
17629 H 92.54203522985115 100.8015404382856 168.48450940598153 H 0.0 **** 0.06
17630 H 93.92298096895139 99.84961689591006 169.08002995620703 H 0.0 **** 0.06
17631 C 45.778287049599285 175.55689744369022 105.00131880398492 C 0.0 **** -0.24
17632 H 46.25633958048594 175.2022744822062 105.91499419527464 H 0.0 **** 0.06
17633 H 46.27598445740155 175.11512283876422 104.13745545988898 H 0.0 **** 0.06
17634 H 45.853179488164926 176.64205972567748 104.94953799296302 H 0.0 **** 0.06
17635 H 44.72849938335031 175.26436084582602 105.004716831002 H 0.0 **** 0.06
17636 C 145.41565692222898 169.04405880295823 87.35653160432646 C 0.0 **** -0.24
17637 H 144.80707835078783 168.150923997021 87.48919902170145 H 0.0 **** 0.06
17638 H 145.79890508411103 169.3695797730365 88.32392776020772 H 0.0 **** 0.06
17639 H 144.8076876493717 169.83733890336754 86.92072152267009 H 0.0 **** 0.06
17640 H 146.24976056877483 168.81962472161098 86.69136408844999 H 0.0 **** 0.06
17641 C 122.52015869357298 75.75254868023603 53.260401337096 C 0.0 **** -0.24
17642 H 121.73516188552956 76.43595382063705 52.93719740875062 H 0.0 **** 0.06
17643 H 122.07463398603635 74.91899064080758 53.80353953152627 H 0.0 **** 0.06
17644 H 123.21588242535701 76.28123833719508 53.91199024057258 H 0.0 **** 0.06
17645 H 123.05475585313305 75.37496513839483 52.38865199566159 H 0.0 **** 0.06
17646 C 86.46371372040198 137.28620639813983 29.893681968035153 C 0.0 **** -0.24
17647 H 86.691322678076 136.92978578063276 28.889360378986964 H 0.0 **** 0.06
17648 H 86.605106498326 138.3656800317296 29.93686872173504 H 0.0 **** 0.06
17649 H 87.12904395170881 136.80345426974458 30.610233051484713 H 0.0 **** 0.06
17650 H 85.42945254066126 137.04402888222188 30.138953727581068 H 0.0 **** 0.06
17651 C 123.0317004086404 77.16036967374083 164.02034917722793 C 0.0 **** -0.24
17652 H 123.44976243545324 76.6644989496773 164.8950718036437 H 0.0 **** 0.06
17653 H 123.81381237507242 77.72639464621813 163.51479704841222 H 0.0 **** 0.06
17654 H 122.2366885360841 77.83819548769429 164.33201994055398 H 0.0 **** 0.06
17655 H 122.62474563390634 76.41307491305048 163.33836036383641 H 0.0 **** 0.06
17656 C 173.34718662525145 47.78309825200432 135.48537180445936 C 0.0 **** -0.24
17657 H 173.65537451079967 47.41389861191358 136.46334532493262 H 0.0 **** 0.06
17658 H 173.8340525853215 48.73844443421453 135.28814202680746 H 0.0 **** 0.06
17659 H 172.26522385621325 47.91709022409708 135.4729582191673 H 0.0 **** 0.06
17660 H 173.63346157438258 47.063472855239624 134.71935139483332 H 0.0 **** 0.06
17661 C 32.467525183574594 32.23468617352876 43.3121337919966 C 0.0 **** -0.24
17662 H 32.14169301164176 33.19638738983724 42.913758880702886 H 0.0 **** 0.06
17663 H 32.171484615055434 31.439180040642583 42.62707585365506 H 0.0 **** 0.06
17664 H 32.004140521028006 32.06869474852317 44.28435179704836 H 0.0 **** 0.06
17665 H 33.55189406787376 32.236590138530914 43.42038741992873 H 0.0 **** 0.06
17666 C 78.06741217726092 45.11659282074103 62.85090314376511 C 0.0 **** -0.24
17667 H 78.94299424084838 44.59695580326128 62.461938132859004 H 0.0 **** 0.06
17668 H 77.21392901361914 44.929197786075065 62.198594185375384 H 0.0 **** 0.06
17669 H 78.26822526052356 46.18769449066494 62.8876005823077 H 0.0 **** 0.06
17670 H 77.8451505884434 44.75442482782569 63.85407933230765 H 0.0 **** 0.06
17671 C 167.24929090627953 148.7291541596947 104.91437547153322 C 0.0 **** -0.24
17672 H 167.83252085699908 149.4510348678599 104.34339174939322 H 0.0 **** 0.06
17673 H 166.87656507128042 147.95279797424067 104.24525894969219 H 0.0 **** 0.06
17674 H 166.4070234743045 149.2354337316796 105.38742511589328 H 0.0 **** 0.06
17675 H 167.87806780010052 148.2775713430214 105.68124568401657 H 0.0 **** 0.06
17676 C 149.69650093543754 85.72647925838429 37.51297674268781 C 0.0 **** -0.24
17677 H 150.67609093048395 86.02879061972324 37.14068964605718 H 0.0 **** 0.06
17678 H 149.02757442851697 86.5878266588672 37.51359227966502 H 0.0 **** 0.06
17679 H 149.7962910418463 85.34396786497736 38.52780543934726 H 0.0 **** 0.06
17680 H 149.2870171211993 84.94878000297462 36.86940685372933 H 0.0 **** 0.06
17681 C 131.11736643144337 16.72674963991284 164.8646114377876 C 0.0 **** -0.24
17682 H 131.1574824808314 16.794228481867947 163.77695124359957 H 0.0 **** 0.06
17683 H 130.70828891851 17.65166717341316 165.27086936316755 H 0.0 **** 0.06
17684 H 132.12222605679153 16.569913342481527 165.25545008415574 H 0.0 **** 0.06
17685 H 130.48028388363554 15.889709383210004 165.15151354127704 H 0.0 **** 0.06
17686 C 111.00510301686707 120.85025478341818 130.8949582525725 C 0.0 **** -0.24
17687 H 110.71902446440596 120.8236101205538 131.94629620064677 H 0.0 **** 0.06
17688 H 111.86182137177393 121.51329203805345 130.76861483851945 H 0.0 **** 0.06
17689 H 110.16921522891 121.21851958349554 130.29956256564014 H 0.0 **** 0.06
17690 H 111.27173990461817 119.84577915951498 130.56516457116373 H 0.0 **** 0.06
17691 C 112.32455880618966 12.017377676531652 67.09418623380736 C 0.0 **** -0.24
17692 H 113.34796319969621 11.89195322811841 67.4494362129534 H 0.0 **** 0.06
17693 H 111.63466082458677 11.585456833387525 67.81951618370675 H 0.0 **** 0.06
17694 H 112.2081805698449 11.512385281806075 66.13631092836349 H 0.0 **** 0.06
17695 H 112.10982169729539 13.078621239742574 66.9748111957324 H 0.0 **** 0.06
17696 C 96.86564423729716 67.17033692290192 167.88904040609307 C 0.0 **** -0.24
17697 H 97.48362855515619 67.48442280160816 168.7303060070519 H 0.0 **** 0.06
17698 H 96.58825643949523 68.04206972386437 167.29707226804067 H 0.0 **** 0.06
17699 H 95.9655836494794 66.68160763910414 168.26267926948572 H 0.0 **** 0.06
17700 H 97.42657793715402 66.47147561955315 167.26802781257845 H 0.0 **** 0.06
17701 C 44.11960482027405 108.32993105849057 81.9269661267198 C 0.0 **** -0.24
17702 H 44.64239849319915 107.90339691986519 81.07053703886889 H 0.0 **** 0.06
17703 H 44.05616833584219 109.41188397090183 81.81131116997035 H 0.0 **** 0.06
17704 H 44.66521010085816 108.0929877136001 82.8403379522507 H 0.0 **** 0.06
17705 H 43.11518309200693 107.91097539928997 81.984987691791 H 0.0 **** 0.06
17706 C 133.94215076478082 22.826402280400572 130.65633487918774 C 0.0 **** -0.24
17707 H 133.6398316335389 23.437537637893712 131.50702112687804 H 0.0 **** 0.06
17708 H 133.0669849193962 22.33216183544829 130.23497935275304 H 0.0 **** 0.06
17709 H 134.66045948774456 22.07538270407059 130.98594912506343 H 0.0 **** 0.06
17710 H 134.40229827139893 23.461046550375812 129.89872660620728 H 0.0 **** 0.06
17711 C 67.58709049213083 9.486577852350365 165.82966511204143 C 0.0 **** -0.24
17712 H 67.97861763752493 10.105190200045513 165.0229088976302 H 0.0 **** 0.06
17713 H 67.53789720341696 10.07488122557794 166.74629019349402 H 0.0 **** 0.06
17714 H 68.24256729095535 8.629436166497044 165.9822221432434 H 0.0 **** 0.06
17715 H 66.58742515498315 9.138386336520625 165.56747572415554 H 0.0 **** 0.06
17716 C 18.795036555174647 141.74839972731263 60.65274242575913 C 0.0 **** -0.24
17717 H 19.542944025725454 141.00848785200589 60.36765086897219 H 0.0 **** 0.06
17718 H 18.000082339307077 141.26170141404913 61.218934038069506 H 0.0 **** 0.06
17719 H 18.37532671723004 142.2047422369261 59.75623892347886 H 0.0 **** 0.06
17720 H 19.261117943449705 142.5179762023016 61.26840350310471 H 0.0 **** 0.06
17721 C 34.72289605447742 164.58797828734546 58.184559380704655 C 0.0 **** -0.24
17722 H 34.24360220032298 163.70234672468956 58.60209920792636 H 0.0 **** 0.06
17723 H 34.602030547672086 165.42440537497797 58.87218325568702 H 0.0 **** 0.06
17724 H 34.261737919047164 164.8330061926045 57.227789364819074 H 0.0 **** 0.06
17725 H 35.78407470424878 164.38899661023112 58.036085411012536 H 0.0 **** 0.06
17726 C 55.214053547981024 21.619286738830624 92.1573375515526 C 0.0 **** -0.24
17727 H 54.18040336222657 21.929309267411057 92.00191328270778 H 0.0 **** 0.06
17728 H 55.31408780746011 21.173820187122153 93.14666613176301 H 0.0 **** 0.06
17729 H 55.86772611139662 22.488349178499405 92.08068230251381 H 0.0 **** 0.06
17730 H 55.49096099430531 20.887466922073664 91.39884406340711 H 0.0 **** 0.06
17731 C 162.92900725913145 153.47873831622815 57.587333444284425 C 0.0 **** -0.24
17732 H 162.54808322091125 153.62601686562564 58.59785274904493 H 0.0 **** 0.06
17733 H 162.1021052383745 153.23899723940778 56.91899399244525 H 0.0 **** 0.06
17734 H 163.64712228793974 152.65811481347737 57.585829990251966 H 0.0 **** 0.06
17735 H 163.41939587046176 154.3912332097296 57.247094613583855 H 0.0 **** 0.06
17736 C 21.779696564238748 93.49462975844108 29.836067337844725 C 0.0 **** -0.24
17737 H 20.744003544162922 93.78504678777404 30.007430220608285 H 0.0 **** 0.06
17738 H 22.396955311263923 94.38862057316828 29.73978410910601 H 0.0 **** 0.06
17739 H 21.84571390324595 92.90773764001904 28.919307421693077 H 0.0 **** 0.06
17740 H 22.132784648638108 92.89703259796795 30.676152921410846 H 0.0 **** 0.06
17741 C 44.796635632329725 105.55782807705306 169.27951987156035 C 0.0 **** -0.24
17742 H 45.66880256697186 104.90603053749648 169.33177092235513 H 0.0 **** 0.06
17743 H 44.17650171862857 105.40713761498687 170.16315422833947 H 0.0 **** 0.06
17744 H 44.219405695278965 105.32118990982293 168.38455037949632 H 0.0 **** 0.06
17745 H 45.122333954438005 106.59766722232332 169.2359131468091 H 0.0 **** 0.06
17746 C 158.62009499021002 148.12714944428225 112.9195831939736 C 0.0 **** -0.24
17747 H 158.83385214739383 148.05823883385352 111.85322511370346 H 0.0 **** 0.06
17748 H 158.68911909730838 149.16697664755958 113.23778030620947 H 0.0 **** 0.06
17749 H 159.34263144600862 147.5282918499323 113.47465168701318 H 0.0 **** 0.06
17750 H 157.6148611534576 147.75290557209044 113.11314408556454 H 0.0 **** 0.06
17751 C 53.0675878744357 28.99641041164608 35.8099699968071 C 0.0 **** -0.24
17752 H 52.32258985180158 28.561231799501485 36.475610192134354 H 0.0 **** 0.06
17753 H 54.063990610885355 28.819303894053803 36.2157978552699 H 0.0 **** 0.06
17754 H 52.89438166710153 30.06975404232017 35.72532691460276 H 0.0 **** 0.06
17755 H 52.9885750919114 28.536375166495617 34.82521626890838 H 0.0 **** 0.06
17756 C 14.79495064574376 49.260219955531625 70.86885508088031 C 0.0 **** -0.24
17757 H 14.158395682724283 50.14236885063036 70.94778863935792 H 0.0 **** 0.06
17758 H 14.282610358797243 48.492876043465 70.28836725284992 H 0.0 **** 0.06
17759 H 15.01017769212536 48.87813347527606 71.86715344477813 H 0.0 **** 0.06
17760 H 15.728034551551488 49.52952676848446 70.37335872071961 H 0.0 **** 0.06
17761 C 74.3792226389435 176.5337576533152 49.76740026748985 C 0.0 **** -0.24
17762 H 74.24810086655953 176.4756880164311 50.84817284970006 H 0.0 **** 0.06
17763 H 73.5191299339879 176.08283216603002 49.27334654137195 H 0.0 **** 0.06
17764 H 75.2848014509603 175.9988883187873 49.4827739327921 H 0.0 **** 0.06
17765 H 74.46558387365711 177.57853059281283 49.46807332634705 H 0.0 **** 0.06
17766 C 148.9260935166667 17.40885806627164 120.95901397601314 C 0.0 **** -0.24
17767 H 149.43623491584904 18.174862446769566 120.37499479421494 H 0.0 **** 0.06
17768 H 148.23055308486158 17.8850666865877 121.65135367945213 H 0.0 **** 0.06
17769 H 149.66012540797482 16.831520077910568 121.52003390649283 H 0.0 **** 0.06
17770 H 148.3771960733643 16.747186635643892 120.28885662100085 H 0.0 **** 0.06
17771 C 57.714010818623365 106.35429770389239 70.14035780482783 C 0.0 **** -0.24
17772 H 56.761199202303956 106.85139494560967 69.95530444373765 H 0.0 **** 0.06
17773 H 58.43108048739481 106.64622871475719 69.37237162932652 H 0.0 **** 0.06
17774 H 57.57149143301568 105.27519425110027 70.11383873055166 H 0.0 **** 0.06
17775 H 58.09121664106854 106.64764085606241 71.12037104049381 H 0.0 **** 0.06
17776 C 164.26774196391534 180.742284775732 6.110446496676829 C 0.0 **** -0.24
17777 H 164.823016790003 180.94192043817975 5.194386010430669 H 0.0 **** 0.06
17778 H 163.84471355562852 179.7376957821021 6.066727720888402 H 0.0 **** 0.06
17779 H 163.46459344904167 181.47078867349967 6.215331501346313 H 0.0 **** 0.06
17780 H 164.93968676503718 180.816537296551 6.965634848591904 H 0.0 **** 0.06
17781 C 31.25378224093987 165.8141728944336 51.19659396748125 C 0.0 **** -0.24
17782 H 32.001380724481294 165.5469460806613 50.45029062408008 H 0.0 **** 0.06
17783 H 30.97439573008853 164.92745702570696 51.76527709501477 H 0.0 **** 0.06
17784 H 30.37307783623112 166.2199362067683 50.69875438512287 H 0.0 **** 0.06
17785 H 31.666815878545208 166.564270933739 51.871892818201104 H 0.0 **** 0.06
17786 C 158.2685730117023 23.49424366822835 169.79459480132442 C 0.0 **** -0.24
17787 H 158.78254832134087 23.01925667982158 170.63057094836952 H 0.0 **** 0.06
17788 H 157.27514827609468 23.812003446753437 170.11255455085208 H 0.0 **** 0.06
17789 H 158.1781400831423 22.784081620094653 168.97344312116758 H 0.0 **** 0.06
17790 H 158.8393971183259 24.361508375981458 169.46285826790188 H 0.0 **** 0.06
17791 C 102.36960893237506 40.187983648410906 101.71907093559118 C 0.0 **** -0.24
17792 H 101.30537897203311 40.2650405729606 101.94117041536556 H 0.0 **** 0.06
17793 H 102.73821119955329 41.15277079400184 101.37027801508346 H 0.0 **** 0.06
17794 H 102.52556929254376 39.43716895751459 100.9441405899381 H 0.0 **** 0.06
17795 H 102.90839037407062 39.89736592144013 102.62090864655873 H 0.0 **** 0.06
17796 C 70.70603572806662 110.6848449810766 119.70847100317023 C 0.0 **** -0.24
17797 H 71.673197444177 110.30964001323383 120.0424512433925 H 0.0 **** 0.06
17798 H 70.84506568110177 111.62941460585006 119.18058340969567 H 0.0 **** 0.06
17799 H 70.05959254273758 110.84276847431397 120.57201008866856 H 0.0 **** 0.06
17800 H 70.24601032404715 109.9588018329232 119.03822825978277 H 0.0 **** 0.06
17801 C 177.94928416946482 174.46326504859888 149.609334555766 C 0.0 **** -0.24
17802 H 177.20131245207511 173.86260144428925 149.0914388936224 H 0.0 **** 0.06
17803 H 178.79595659705677 174.63820889696962 148.94492140619383 H 0.0 **** 0.06
17804 H 178.28773156375465 173.93386100372152 150.4989721429431 H 0.0 **** 0.06
17805 H 177.51076996719394 175.41829242474984 149.89852370834205 H 0.0 **** 0.06
17806 C 101.22444561860675 70.01063418785736 24.105375160631894 C 0.0 **** -0.24
17807 H 100.3150568433748 70.53146740116392 24.404586080753887 H 0.0 **** 0.06
17808 H 100.9908778208495 69.29905404744329 23.313628899228576 H 0.0 **** 0.06
17809 H 101.63805662166328 69.47863719604362 24.962001973887425 H 0.0 **** 0.06
17810 H 101.95400013733325 70.73372329302975 23.740368695997347 H 0.0 **** 0.06
17811 C 88.20285321251397 102.61887672470799 113.64481434075465 C 0.0 **** -0.24
17812 H 89.08970450615048 103.22092245447924 113.44580153454397 H 0.0 **** 0.06
17813 H 87.31461784684667 103.16537644938471 113.32769866562676 H 0.0 **** 0.06
17814 H 88.13977648094213 102.40816603613571 114.71278892648674 H 0.0 **** 0.06
17815 H 88.26998320094124 101.68183966401075 113.09345743626012 H 0.0 **** 0.06
17816 C 128.8032644898313 122.48110959653756 164.21450644504313 C 0.0 **** -0.24
17817 H 128.50746490011107 123.09545895913247 165.06502442345322 H 0.0 **** 0.06
17818 H 127.9287970663526 121.96338981070367 163.818461815815 H 0.0 **** 0.06
17819 H 129.5448816293711 121.75003015936555 164.5349705071173 H 0.0 **** 0.06
17820 H 129.23111483947616 123.11778651625538 163.43893569621105 H 0.0 **** 0.06
17821 C 148.33194289744733 131.8166688183237 82.38068285633989 C 0.0 **** -0.24
17822 H 148.44110479909335 132.89107988528303 82.2347620269287 H 0.0 **** 0.06
17823 H 147.40107527499552 131.48122057451423 81.92266175830508 H 0.0 **** 0.06
17824 H 148.31255035560253 131.59508291908156 83.44777187939155 H 0.0 **** 0.06
17825 H 149.17220495651557 131.30002726211643 81.91666395379252 H 0.0 **** 0.06
17826 C 105.65501987742857 55.05646876145397 184.4116301025589 C 0.0 **** -0.24
17827 H 104.73093338792216 54.75032948254352 184.90355011954426 H 0.0 **** 0.06
17828 H 106.39468368328886 55.32751260046777 185.1656301550179 H 0.0 **** 0.06
17829 H 105.45808216121708 55.91505435427098 183.76996378057908 H 0.0 **** 0.06
17830 H 106.03545610513379 54.231335886425995 183.80971036288028 H 0.0 **** 0.06
17831 C 118.99860469701599 4.162630723533823 18.438291620271023 C 0.0 **** -0.24
17832 H 118.15175310680559 4.0348536084675075 19.112378966775573 H 0.0 **** 0.06
17833 H 118.76622362791909 3.7087068532541707 17.474490529199187 H 0.0 **** 0.06
17834 H 119.87804343292385 3.680913822247497 18.864801505311704 H 0.0 **** 0.06
17835 H 119.19707154417699 5.225559892015099 18.301504003681487 H 0.0 **** 0.06
17836 C 46.790184577862306 140.69018962575836 162.0972198997753 C 0.0 **** -0.24
17837 H 47.04857868693307 139.67026281051113 161.81326193106202 H 0.0 **** 0.06
17838 H 46.211369167842236 140.67434867765866 163.02138448455378 H 0.0 **** 0.06
17839 H 46.19947531274363 141.14993160038642 161.30569023362966 H 0.0 **** 0.06
17840 H 47.7031174041673 141.26607705540948 162.2511377450223 H 0.0 **** 0.06
17841 C 55.930330331270994 5.646648264471985 101.8251529525031 C 0.0 **** -0.24
17842 H 56.1930523947004 6.2744575204167035 100.9733953387951 H 0.0 **** 0.06
17843 H 55.8135935943054 4.61448590345487 101.49222533183159 H 0.0 **** 0.06
17844 H 54.99316302509763 5.997221820234678 102.25859500058819 H 0.0 **** 0.06
17845 H 56.72000528984782 5.7002460631809555 102.57380846098529 H 0.0 **** 0.06
17846 C 128.05462632637926 92.27755236090906 105.75673273027293 C 0.0 **** -0.24
17847 H 128.1924089395306 93.00297311475208 106.5584640081449 H 0.0 **** 0.06
17848 H 127.04293276147443 92.36204801937902 105.3593777393253 H 0.0 **** 0.06
17849 H 128.20960122557284 91.27199919916995 106.14638636510163 H 0.0 **** 0.06
17850 H 128.77480142133163 92.47366065350667 104.9622103956677 H 0.0 **** 0.06
17851 C 140.5359044988457 67.0168666933413 8.23383050966931 C 0.0 **** -0.24
17852 H 140.70284243233328 66.65045704882442 9.24745326883987 H 0.0 **** 0.06
17853 H 141.27875307442997 66.58088952945627 7.564183345452264 H 0.0 **** 0.06
17854 H 140.62739224821445 68.10225330526528 8.221015657743287 H 0.0 **** 0.06
17855 H 139.53727616174297 66.73100738548288 7.9052818307597335 H 0.0 **** 0.06
17856 C 168.55087717381505 122.67941516583413 169.76410401640092 C 0.0 **** -0.24
17857 H 169.5278432978243 122.59706886615244 170.24027902606636 H 0.0 **** 0.06
17858 H 168.67795217445442 122.73313381609911 168.68249704806567 H 0.0 **** 0.06
17859 H 168.04967983857725 123.58069463044144 170.11659218979477 H 0.0 **** 0.06
17860 H 167.94803338440425 121.80676335064383 170.017047801677 H 0.0 **** 0.06
17861 C 117.4011079276629 30.678059336256126 117.58214799431387 C 0.0 **** -0.24
17862 H 117.77290016478923 29.884580167405247 118.23173305124111 H 0.0 **** 0.06
17863 H 116.59824146275957 30.28811136383557 116.95623634767135 H 0.0 **** 0.06
17864 H 118.21290686199461 31.039244788455548 116.94986407781478 H 0.0 **** 0.06
17865 H 117.02234060236964 31.498132621986187 118.19196967049758 H 0.0 **** 0.06
17866 C 45.80787551526299 31.222402087422168 86.92081962978426 C 0.0 **** -0.24
17867 H 46.29919317447445 30.300053340485775 86.61033272123228 H 0.0 **** 0.06
17868 H 45.293622878432075 31.05839769402543 87.86788570575857 H 0.0 **** 0.06
17869 H 45.085513583637976 31.521973028893143 86.16194293511779 H 0.0 **** 0.06
17870 H 46.55343516413657 32.007201882500766 87.04308336373902 H 0.0 **** 0.06
17871 C 143.92700435893852 88.2089182038686 64.49899976446085 C 0.0 **** -0.24
17872 H 143.21019479833794 88.00777801816376 65.2948546706986 H 0.0 **** 0.06
17873 H 144.83363255635714 88.63721500680283 64.92799342028576 H 0.0 **** 0.06
17874 H 143.4928992336722 88.91267742165984 63.78920679979838 H 0.0 **** 0.06
17875 H 144.17123821398374 87.27951334217654 63.98653538526068 H 0.0 **** 0.06
17876 C 175.21144368982567 155.64476566064198 153.36905983270873 C 0.0 **** -0.24
17877 H 174.81138504344506 156.65442007589277 153.45926178209209 H 0.0 **** 0.06
17878 H 174.41566607456292 154.96418660703918 153.06802582035755 H 0.0 **** 0.06
17879 H 175.61668519260587 155.32760608172973 154.33061509436226 H 0.0 **** 0.06
17880 H 176.00317515125067 155.63379742220764 152.62028861132114 H 0.0 **** 0.06
17881 C 154.52490003886538 62.761009330827164 64.94229856093834 C 0.0 **** -0.24
17882 H 153.55927315870196 62.8103807983469 64.43893233899969 H 0.0 **** 0.06
17883 H 154.60251105250762 61.817233226727 65.48440060034713 H 0.0 **** 0.06
17884 H 154.6121286601546 63.590467852371376 65.64300324530957 H 0.0 **** 0.06
17885 H 155.32274367358343 62.822740545843644 64.2028513814456 H 0.0 **** 0.06
17886 C 85.72133970124729 37.01586255964514 65.39536352260262 C 0.0 **** -0.24
17887 H 85.39440169518743 36.00073843125898 65.16969138849481 H 0.0 **** 0.06
17888 H 86.81051744461503 37.05252860371175 65.4087351753596 H 0.0 **** 0.06
17889 H 85.33511784166164 37.31216516536506 66.37109956632264 H 0.0 **** 0.06
17890 H 85.34354666603598 37.69699397964075 64.63282252350075 H 0.0 **** 0.06
17891 C 13.097130816694076 20.860017897175666 182.71161412727832 C 0.0 **** -0.24
17892 H 12.693707855203662 19.848882040491347 182.75060798844555 H 0.0 **** 0.06
17893 H 12.584563064280793 21.4841711821406 183.44438037062224 H 0.0 **** 0.06
17894 H 12.947534586825768 21.272376389340536 181.71376804420743 H 0.0 **** 0.06
17895 H 14.163474138343922 20.83544349741767 182.9385863938971 H 0.0 **** 0.06
17896 C 117.56098660655037 152.86070882660883 92.30715225146224 C 0.0 **** -0.24
17897 H 117.16176187760031 152.40922209859133 91.39902191446458 H 0.0 **** 0.06
17898 H 116.96545283592378 152.54252652509814 93.16334728516142 H 0.0 **** 0.06
17899 H 117.52093534388511 153.94658071335715 92.22081276462467 H 0.0 **** 0.06
17900 H 118.59460002302545 152.544952237669 92.44603503079043 H 0.0 **** 0.06
17901 C 141.34309292315362 13.624691587633066 1.2548545272579048 C 0.0 **** -0.24
17902 H 140.50910536219067 13.45208991722221 0.5738319139249626 H 0.0 **** 0.06
17903 H 141.86157397241737 14.540640058804833 0.9674746062112618 H 0.0 **** 0.06
17904 H 142.03485300283063 12.783319877109783 1.2028542788939873 H 0.0 **** 0.06
17905 H 140.9671239058476 13.724399168855022 2.272413383219927 H 0.0 **** 0.06
17906 C 143.6446451190718 53.33352716819019 162.4174927469877 C 0.0 **** -0.24
17907 H 143.53138975990146 53.69846903697777 161.39521191838173 H 0.0 **** 0.06
17908 H 144.70435680395394 53.25754253620954 162.65931256116437 H 0.0 **** 0.06
17909 H 143.1801603120491 52.35177566137352 162.5054597113064 H 0.0 **** 0.06
17910 H 143.16187167223973 54.02714494477544 163.10543934815382 H 0.0 **** 0.06
17911 C 131.85818152648955 128.77909359852038 15.30150415161016 C 0.0 **** -0.24
17912 H 131.78958551419726 127.86189061293511 14.717326428644355 H 0.0 **** 0.06
17913 H 130.96422620281953 128.8861626059803 15.916585033253916 H 0.0 **** 0.06
17914 H 131.94075011755137 129.63314887511513 14.629732344546326 H 0.0 **** 0.06
17915 H 132.73796240306496 128.73574114162682 15.943651751860422 H 0.0 **** 0.06
17916 C 8.523745184953718 84.5651645541117 14.355533486552638 C 0.0 **** -0.24
17917 H 8.688656681173889 83.9824832009649 15.261125541734096 H 0.0 **** 0.06
17918 H 8.639689982118128 85.62610939923998 14.58016704940755 H 0.0 **** 0.06
17919 H 7.5154268727124744 84.38080448968559 13.98346234213875 H 0.0 **** 0.06
17920 H 9.250274343675642 84.27271414374084 13.59751534772262 H 0.0 **** 0.06
17921 C 19.94819828963793 68.3621814781036 105.30808105548522 C 0.0 **** -0.24
17922 H 19.97297682829776 67.4147657608021 105.84573970715849 H 0.0 **** 0.06
17923 H 19.008627975214523 68.87426196918031 105.51562998458309 H 0.0 **** 0.06
17924 H 20.032057040208258 68.17548090375992 104.2378857711551 H 0.0 **** 0.06
17925 H 20.781726090111647 68.98593054340354 105.63364505094432 H 0.0 **** 0.06
17926 C 150.10846757560358 125.68459189461585 30.071553306393525 C 0.0 **** -0.24
17927 H 150.73542610807488 125.23635183431664 29.30172658970372 H 0.0 **** 0.06
17928 H 149.42114826398154 126.39467500574115 29.61141255765517 H 0.0 **** 0.06
17929 H 150.73676783254461 126.2036254944281 30.795036035850018 H 0.0 **** 0.06
17930 H 149.53990289278977 124.904531195762 30.577066759299015 H 0.0 **** 0.06
17931 C 1.4048079459236362 48.93414441167948 70.82139589814334 C 0.0 **** -0.24
17932 H 1.0092164993912434 48.77744477319783 69.81769823315179 H 0.0 **** 0.06
17933 H 0.5970257242692867 49.242210810406135 71.4850933705389 H 0.0 **** 0.06
17934 H 2.16848392905311 49.71055218993749 70.79340865944764 H 0.0 **** 0.06
17935 H 1.8433371749555931 48.00576977448162 71.18787512157994 H 0.0 **** 0.06
17936 C 81.04667371237412 109.35398517383669 84.9097519283714 C 0.0 **** -0.24
17937 H 80.71642230672896 109.40491282031002 85.94649862241242 H 0.0 **** 0.06
17938 H 80.31918064833712 108.79202077706145 84.32328091978707 H 0.0 **** 0.06
17939 H 82.01578794349052 108.85655095067824 84.861180479371 H 0.0 **** 0.06
17940 H 81.13622127135618 110.36307664685165 84.5067159345415 H 0.0 **** 0.06
17941 C 117.40708026897437 37.16263165743965 143.29508164143738 C 0.0 **** -0.24
17942 H 118.34028192663891 36.810870295620475 142.8545569683962 H 0.0 **** 0.06
17943 H 116.92804853587666 36.34389142257294 143.83236313099235 H 0.0 **** 0.06
17944 H 116.74458091412356 37.51793900087961 142.5059950476886 H 0.0 **** 0.06
17945 H 117.61775414647559 37.97838241186264 143.98785189792807 H 0.0 **** 0.06
17946 C 82.59727675403335 3.8797429599218276 92.72746482728634 C 0.0 **** -0.24
17947 H 83.3438238520147 4.377793331761808 93.34514321564869 H 0.0 **** 0.06
17948 H 81.70411915645474 4.502082961548041 92.6646809665494 H 0.0 **** 0.06
17949 H 82.34088175524303 2.9178464165050855 93.17279059248277 H 0.0 **** 0.06
17950 H 83.00109396861015 3.7215289818804536 91.72775719848359 H 0.0 **** 0.06
17951 C 0.15213518515480473 150.82099526593677 94.65288170377009 C 0.0 **** -0.24
17952 H 0.8698898903481336 150.13835762852142 94.19772743536633 H 0.0 **** 0.06
17953 H 0.13143138873272164 150.65960236674158 95.73094341941503 H 0.0 **** 0.06
17954 H -0.8388451458161512 150.63395390839187 94.23804088784037 H 0.0 **** 0.06
17955 H 0.4458506468428709 151.8496122501295 94.44310397327693 H 0.0 **** 0.06
17956 C 152.64255086454185 105.28400129768966 31.60811330035348 C 0.0 **** -0.24
17957 H 152.4413487103506 104.69982348980295 30.710306340165786 H 0.0 **** 0.06
17958 H 151.6997312972656 105.6190707833432 32.04186795076299 H 0.0 **** 0.06
17959 H 153.25205857891103 106.14961455401487 31.34903918941278 H 0.0 **** 0.06
17960 H 153.17630567647743 104.66630475110475 32.331300809541474 H 0.0 **** 0.06
17961 C 30.10476942182892 16.85712141883039 39.09769764502215 C 0.0 **** -0.24
17962 H 31.142224138990358 16.75282270489072 38.779058559787984 H 0.0 **** 0.06
17963 H 29.64811100843417 15.870554698759747 39.17821825908453 H 0.0 **** 0.06
17964 H 29.55888254383838 17.4527242308597 38.366086978630506 H 0.0 **** 0.06
17965 H 30.071538298599364 17.353856459020193 40.067550914593596 H 0.0 **** 0.06
17966 C 158.37338567299128 99.44461453480221 113.372137404263 C 0.0 **** -0.24
17967 H 158.45014326304215 98.90193305346418 114.31493561920935 H 0.0 **** 0.06
17968 H 157.71260534260682 98.90289739224352 112.69537359351274 H 0.0 **** 0.06
17969 H 159.3630961236962 99.53116535313347 112.92277612018664 H 0.0 **** 0.06
17970 H 157.96997258133217 100.43927075143273 113.55804118412446 H 0.0 **** 0.06
17971 C 105.52570505419162 59.18511075643818 26.20213140447352 C 0.0 **** -0.24
17972 H 104.58116996864452 58.96080761899438 26.69849413073787 H 0.0 **** 0.06
17973 H 106.03360656905427 59.990133353154675 26.733462787923145 H 0.0 **** 0.06
17974 H 105.33131432342968 59.492225515518726 25.174669422722502 H 0.0 **** 0.06
17975 H 106.15551044568637 58.295484188094974 26.202448697677212 H 0.0 **** 0.06
17976 C 29.857674665953283 29.900619973318697 88.27239619617927 C 0.0 **** -0.24
17977 H 30.769699024773715 29.431242114435335 88.64275735320018 H 0.0 **** 0.06
17978 H 29.41853986232543 29.27546510893451 87.49487681681762 H 0.0 **** 0.06
17979 H 30.09588664720802 30.881250546148095 87.85953530802851 H 0.0 **** 0.06
17980 H 29.14837725088745 30.013754758691405 89.09281077570512 H 0.0 **** 0.06
17981 C 25.235887542589865 45.128900460187054 145.47644536972098 C 0.0 **** -0.24
17982 H 24.437874582840948 44.68876314122187 146.07428298657345 H 0.0 **** 0.06
17983 H 26.099439446003828 45.32404370808368 146.11137808857455 H 0.0 **** 0.06
17984 H 24.887914168229997 46.06410610511685 145.03766376268493 H 0.0 **** 0.06
17985 H 25.51740470148019 44.43748725163516 144.68114714291525 H 0.0 **** 0.06
17986 C 144.9603166951501 55.91631528451097 26.739086709727815 C 0.0 **** -0.24
17987 H 144.02651815465472 55.962419590201506 26.178728750835262 H 0.0 **** 0.06
17988 H 145.69669190547512 55.346958373135294 26.17213819884654 H 0.0 **** 0.06
17989 H 144.78519198763425 55.43065990435417 27.69930364498032 H 0.0 **** 0.06
17990 H 145.33323436196912 56.92762534231673 26.905870347411565 H 0.0 **** 0.06
17991 C 83.20917112751681 70.13161386648467 130.83637087422125 C 0.0 **** -0.24
17992 H 83.59678892132933 70.8232551318015 131.58406543644998 H 0.0 **** 0.06
17993 H 83.51656093955982 69.11620875667668 131.08641752705967 H 0.0 **** 0.06
17994 H 83.6021100863269 70.39944556743131 129.8556356832887 H 0.0 **** 0.06
17995 H 82.12010649144403 70.18836864472661 130.8183288661926 H 0.0 **** 0.06
17996 C 150.55468121638063 117.5220616382194 102.18827325597867 C 0.0 **** -0.24
17997 H 150.9390020720669 116.59957152371082 102.6230925555116 H 0.0 **** 0.06
17998 H 149.60118698590787 117.77408418895011 102.65339342526401 H 0.0 **** 0.06
17999 H 150.41078642793374 117.38518253349115 101.11634379329449 H 0.0 **** 0.06
18000 H 151.2670532232427 118.32866537255889 102.35928168753837 H 0.0 **** 0.06
18001 C 143.6678046888885 24.652669487173554 36.24982842163365 C 0.0 **** -0.24
18002 H 142.5937227450791 24.594305096187597 36.07474578560448 H 0.0 **** 0.06
18003 H 144.13027457405815 23.69924991702672 35.99386924673047 H 0.0 **** 0.06
18004 H 143.8528340618335 24.875165445217036 37.30118472063543 H 0.0 **** 0.06
18005 H 144.0940261576393 25.441999977780128 35.63120738898891 H 0.0 **** 0.06
18006 C 27.049270461989664 2.2497537971179895 144.43205093864083 C 0.0 **** -0.24
18007 H 27.044233691345028 1.4111592604580494 143.73657903503172 H 0.0 **** 0.06
18008 H 27.957942751854716 2.2173392812372867 145.03318181609086 H 0.0 **** 0.06
18009 H 26.178809196947952 2.1846480006913396 145.0851663912407 H 0.0 **** 0.06
18010 H 27.015327259934907 3.1849354264928706 143.8745166309448 H 0.0 **** 0.06
18011 C 93.14103434675131 140.23212510734834 32.68593414069767 C 0.0 **** -0.24
18012 H 93.46014444054332 139.21006992843934 32.8928407636258 H 0.0 **** 0.06
18013 H 93.80294438760943 140.6753235038138 31.940802149933063 H 0.0 **** 0.06
18014 H 93.18413340339829 140.8177923059497 33.60454220832332 H 0.0 **** 0.06
18015 H 92.11979541251314 140.22457574533672 32.30662769619835 H 0.0 **** 0.06
18016 C 173.43921547698986 73.70145096972726 30.71190453292752 C 0.0 **** -0.24
18017 H 172.65567816904291 74.31398213600039 31.156958685010977 H 0.0 **** 0.06
18018 H 172.99024947272244 72.97030034717432 30.03904743308499 H 0.0 **** 0.06
18019 H 173.98697082466185 73.18238862540757 31.499415017238277 H 0.0 **** 0.06
18020 H 174.12452633979194 74.33861135431137 30.15283831969765 H 0.0 **** 0.06
18021 C 122.55397638282602 120.52700366454083 0.5297715111146459 C 0.0 **** -0.24
18022 H 121.89967306996988 120.08216389490791 1.2798189288396884 H 0.0 **** 0.06
18023 H 123.59248291327282 120.3083523877478 0.7790087004333586 H 0.0 **** 0.06
18024 H 122.40417621618127 121.60575661900684 0.5103216375208817 H 0.0 **** 0.06
18025 H 122.31913409879166 120.10950644957784 -0.4491628748775085 H 0.0 **** 0.06
18026 C 97.40080066607896 37.286303707034165 17.005652890457412 C 0.0 **** -0.24
18027 H 96.87916795815505 36.47535994028843 16.495660801362007 H 0.0 **** 0.06
18028 H 98.43159274406065 36.988642496726385 17.199448849226826 H 0.0 **** 0.06
18029 H 96.90061564521739 37.50248983346833 17.948980953446167 H 0.0 **** 0.06
18030 H 97.39082554465745 38.1760560357576 16.376549051988 H 0.0 **** 0.06
18031 C 159.23218000886786 35.32893012297677 160.4011400878885 C 0.0 **** -0.24
18032 H 160.08356484687548 35.726114467963185 160.95408658018175 H 0.0 **** 0.06
18033 H 158.49635329396364 36.12001461769432 160.24982987112594 H 0.0 **** 0.06
18034 H 158.77894245918745 34.515160788566845 160.96653334721154 H 0.0 **** 0.06
18035 H 159.56905516499842 34.95649737347182 159.4338245580492 H 0.0 **** 0.06
18036 C 166.60815413932556 88.47776789451314 70.90752015329707 C 0.0 **** -0.24
18037 H 166.8536670462684 89.26423143256653 70.19319396532853 H 0.0 **** 0.06
18038 H 167.10682451483598 87.55361389401708 70.61618599639837 H 0.0 **** 0.06
18039 H 165.52909795191908 88.32085740797083 70.91712384582337 H 0.0 **** 0.06
18040 H 166.9403295118136 88.7740775445618 71.90268018356676 H 0.0 **** 0.06
18041 C 116.18972299603394 108.96613830140144 104.0411530597675 C 0.0 **** -0.24
18042 H 115.22138562746852 109.28821850513778 103.658354885268 H 0.0 **** 0.06
18043 H 116.68841435693889 109.80861886197825 104.52119349002855 H 0.0 **** 0.06
18044 H 116.80389701045982 108.60217183249547 103.2177132965479 H 0.0 **** 0.06
18045 H 116.04588279738766 108.1667757796585 104.76744907134285 H 0.0 **** 0.06
18046 C 150.44678094161156 52.282930672899454 136.52559395924266 C 0.0 **** -0.24
18047 H 150.37754197341934 51.7111122611407 137.45130722350837 H 0.0 **** 0.06
18048 H 150.4922347945367 51.597082605172034 135.67904226961087 H 0.0 **** 0.06
18049 H 151.34564215287165 52.89840260194444 136.54409168586608 H 0.0 **** 0.06
18050 H 149.56934446648143 52.92282013220802 136.4282744182911 H 0.0 **** 0.06
18051 C 24.757467552633244 99.09332014974588 104.9158528038394 C 0.0 **** -0.24
18052 H 25.065682230566367 98.80421581949476 105.92070591093163 H 0.0 **** 0.06
18053 H 23.76392619501611 99.53980579321141 104.95617034393264 H 0.0 **** 0.06
18054 H 24.73437715161738 98.21165898326858 104.27627970031601 H 0.0 **** 0.06
18055 H 25.46594900886973 99.8161126834283 104.51285986354246 H 0.0 **** 0.06
18056 C 134.7870624864716 147.82580199656184 77.16501148092358 C 0.0 **** -0.24
18057 H 134.96067687501386 148.87650579284795 77.39997311623264 H 0.0 **** 0.06
18058 H 135.67226457070774 147.4126512388744 76.6800876544684 H 0.0 **** 0.06
18059 H 133.93211712753953 147.7392352736769 76.49513613757341 H 0.0 **** 0.06
18060 H 134.58608968297023 147.27657945469346 78.08414959026479 H 0.0 **** 0.06
18061 C 120.71825986289376 43.43559624145519 170.8497027262579 C 0.0 **** -0.24
18062 H 121.3076759361882 42.52342507732193 170.7604401550928 H 0.0 **** 0.06
18063 H 121.24509017561998 44.1469050805817 171.4865386110252 H 0.0 **** 0.06
18064 H 119.74956716856109 43.199805032114426 171.29191123770624 H 0.0 **** 0.06
18065 H 120.57036220190365 43.87165513803198 169.86179924885937 H 0.0 **** 0.06
18066 C 142.87608881034797 81.7974313028962 48.02483718993824 C 0.0 **** -0.24
18067 H 142.82392251983208 82.67626430730371 48.66789364452728 H 0.0 **** 0.06
18068 H 142.91151432274668 80.89838105586625 48.64183322089002 H 0.0 **** 0.06
18069 H 143.773706044103 81.85104573255137 47.40914234086398 H 0.0 **** 0.06
18070 H 141.9962242152409 81.76348698564425 47.3830635396385 H 0.0 **** 0.06
18071 C 168.44730572761745 164.20078218669713 40.266460716938724 C 0.0 **** -0.24
18072 H 167.81201844136217 164.23563594095043 39.38215669074731 H 0.0 **** 0.06
18073 H 169.4867988162552 164.3418743564635 39.97271516744374 H 0.0 **** 0.06
18074 H 168.33495643259891 163.23328940519096 40.75533565597951 H 0.0 **** 0.06
18075 H 168.15325216852744 164.99196956375235 40.95584478402009 H 0.0 **** 0.06
18076 C 129.64034042772954 54.676716549619016 83.5907770282044 C 0.0 **** -0.24
18077 H 129.88600132297734 55.726261248310266 83.75113600367946 H 0.0 **** 0.06
18078 H 128.66723988487774 54.459903217860415 84.03185149495636 H 0.0 **** 0.06
18079 H 130.40014408570823 54.050343732741 84.0586924808925 H 0.0 **** 0.06
18080 H 129.60824515191172 54.470913638232304 82.52064132192473 H 0.0 **** 0.06
18081 C 178.70432570154838 44.597113663756716 157.03318500465585 C 0.0 **** -0.24
18082 H 178.2736567971076 45.57516833795694 156.81942882637998 H 0.0 **** 0.06
18083 H 178.11750300023368 43.825919893252376 156.5342865718397 H 0.0 **** 0.06
18084 H 178.69424511341686 44.424094672614956 158.10935096553644 H 0.0 **** 0.06
18085 H 179.7313239116882 44.56560405735331 156.66919298973795 H 0.0 **** 0.06
18086 C 172.51868669122035 86.49612937158031 133.22608520926508 C 0.0 **** -0.24
18087 H 172.69807585472319 87.19898975849827 132.4124881538898 H 0.0 **** 0.06
18088 H 173.43110556046636 86.3762207359145 133.8100681584321 H 0.0 **** 0.06
18089 H 172.22059812888267 85.531597035576 132.8139602672003 H 0.0 **** 0.06
18090 H 171.72387057321015 86.87803913282875 133.8665246110391 H 0.0 **** 0.06
18091 C 73.59261280148431 158.4304293276905 79.66419342422053 C 0.0 **** -0.24
18092 H 72.50501172400688 158.48925913859443 79.61989536875909 H 0.0 **** 0.06
18093 H 73.89344120277559 157.39322648249072 79.81815101831018 H 0.0 **** 0.06
18094 H 73.95606164031871 159.04056500097033 80.49155718005665 H 0.0 **** 0.06
18095 H 74.0144877049502 158.79644779754886 78.72857630722022 H 0.0 **** 0.06
18096 C 87.24870163019183 147.0417359331482 104.8315675171658 C 0.0 **** -0.24
18097 H 86.48159665591253 146.3410296597702 104.50291568920015 H 0.0 **** 0.06
18098 H 87.66351283493232 146.7068923617424 105.78284183894554 H 0.0 **** 0.06
18099 H 86.8093368839025 148.0309008531284 104.95384467346447 H 0.0 **** 0.06
18100 H 88.04247523946198 147.08651020198215 104.08444695200332 H 0.0 **** 0.06
18101 C 114.80539163223567 133.26327558067925 80.34459211861315 C 0.0 **** -0.24
18102 H 115.3830618741505 134.0361090871329 80.8512525726493 H 0.0 **** 0.06
18103 H 115.39420575427529 132.34794890809866 80.2864425654335 H 0.0 **** 0.06
18104 H 114.55438383676919 133.59920389649614 79.33768365385964 H 0.0 **** 0.06
18105 H 113.888056084701 133.07029246108584 80.90183210345393 H 0.0 **** 0.06
18106 C 158.6963188133441 180.5616542318986 137.93079240727286 C 0.0 **** -0.24
18107 H 158.34703290932734 179.62569494742297 138.36663978348116 H 0.0 **** 0.06
18108 H 157.90253598877422 180.99679717276607 137.32261657602493 H 0.0 **** 0.06
18109 H 159.56845752206723 180.3687205211899 137.307108202057 H 0.0 **** 0.06
18110 H 158.9651375859868 181.25498634290832 138.72741176526176 H 0.0 **** 0.06
18111 C 22.412561839191767 107.7860488752372 31.168511910514226 C 0.0 **** -0.24
18112 H 23.2964974999972 107.84574323362516 31.803530568230897 H 0.0 **** 0.06
18113 H 21.614646919906306 107.27270041690518 31.705342900733726 H 0.0 **** 0.06
18114 H 22.654111675390794 107.23270253910833 30.26097850977081 H 0.0 **** 0.06
18115 H 22.08627535876738 108.79210917357425 30.904879263585784 H 0.0 **** 0.06
18116 C 134.59938495186697 139.52774225445398 52.81817376422629 C 0.0 **** -0.24
18117 H 134.49228511605708 140.28144000311192 52.03944233494218 H 0.0 **** 0.06
18118 H 134.38979120260586 139.97749536869117 53.78923142774737 H 0.0 **** 0.06
18119 H 135.6183396562385 139.13906223479677 52.81032850337482 H 0.0 **** 0.06
18120 H 133.8988207154614 138.7131520731586 52.635450089333574 H 0.0 **** 0.06
18121 C 87.76540230873276 129.4979167863088 63.167412537645276 C 0.0 **** -0.24
18122 H 87.02991621361896 130.22437599608418 63.513325228203826 H 0.0 **** 0.06
18123 H 87.66534245249487 129.36323103079786 62.090609805182496 H 0.0 **** 0.06
18124 H 87.59928251545595 128.54574340764486 63.6713534434581 H 0.0 **** 0.06
18125 H 88.76826978106662 129.85969864570336 63.3967378741965 H 0.0 **** 0.06
18126 C 14.081614620675339 122.60492429804644 145.55117164476746 C 0.0 **** -0.24
18127 H 13.776333319147568 122.55907570496133 146.59651302205677 H 0.0 **** 0.06
18128 H 13.315322677894585 123.11801991403463 144.97091748721667 H 0.0 **** 0.06
18129 H 14.2125934663012 121.59291666377301 145.16666614477498 H 0.0 **** 0.06
18130 H 15.023557453118286 123.14764274741886 145.47232529910298 H 0.0 **** 0.06
18131 C 85.67674350045456 55.466746298881546 52.443464656025 C 0.0 **** -0.24
18132 H 86.14971997130567 55.81739843995251 53.36082592619421 H 0.0 **** 0.06
18133 H 85.84656439883804 54.39563720388662 52.33393597248012 H 0.0 **** 0.06
18134 H 86.10555154594277 55.99249104914087 51.590340115876515 H 0.0 **** 0.06
18135 H 84.60495330201633 55.662636205207846 52.49064843274236 H 0.0 **** 0.06
18136 C 158.19436940742025 126.35483582202026 83.8007615385975 C 0.0 **** -0.24
18137 H 159.15766625433602 126.00431999528887 84.16958286627539 H 0.0 **** 0.06
18138 H 157.90790504681758 125.77607022991852 82.92240914154354 H 0.0 **** 0.06
18139 H 158.26896922500154 127.4091034918347 83.5331033138699 H 0.0 **** 0.06
18140 H 157.4408757207937 126.231198441849 84.57966298666742 H 0.0 **** 0.06
18141 C 60.767446889638734 83.0470604631458 62.96236214823455 C 0.0 **** -0.24
18142 H 60.84474605502123 81.98011684859046 62.75106011886075 H 0.0 **** 0.06
18143 H 59.79066633346726 83.26156081743805 63.3961094363045 H 0.0 **** 0.06
18144 H 60.885618191697716 83.60948708808175 62.03635502616106 H 0.0 **** 0.06
18145 H 61.54925609006598 83.33512375559958 63.664956818401095 H 0.0 **** 0.06
18146 C 157.59111300139045 42.1330328466656 31.393328033966668 C 0.0 **** -0.24
18147 H 158.2915416050887 42.39353968395312 30.599487158508907 H 0.0 **** 0.06
18148 H 157.5639946182707 42.93478658533286 32.131446524122936 H 0.0 **** 0.06
18149 H 157.91405019890226 41.20847918084701 31.871548109669988 H 0.0 **** 0.06
18150 H 156.59644701689686 41.9950782659013 30.968976192726814 H 0.0 **** 0.06
18151 C 96.73877998696844 135.01711280596265 4.152024972379479 C 0.0 **** -0.24
18152 H 96.44245034912245 135.61737597616764 5.012215785105184 H 0.0 **** 0.06
18153 H 97.01995994003698 134.01765267965294 4.486091866491819 H 0.0 **** 0.06
18154 H 97.58729317864459 135.48757932416265 3.656575732360835 H 0.0 **** 0.06
18155 H 95.9037947055034 134.9458504129263 3.453824674948919 H 0.0 **** 0.06
18156 C 60.83047103960543 180.27732450398025 136.54539185618978 C 0.0 **** -0.24
18157 H 60.230956729719935 180.78949386050766 135.79275947057096 H 0.0 **** 0.06
18158 H 61.678574878154464 180.9038093203082 136.8212034052235 H 0.0 **** 0.06
18159 H 61.19294504190144 179.33237604941604 136.13966362255246 H 0.0 **** 0.06
18160 H 60.218847968875934 180.08401255171657 137.42721161970235 H 0.0 **** 0.06
18161 C 32.155859717666345 28.568254223492076 99.04131650632057 C 0.0 **** -0.24
18162 H 32.23033905641566 29.564129667205435 99.47976299989243 H 0.0 **** 0.06
18163 H 31.987501921085112 27.835691396600865 99.83177951163874 H 0.0 **** 0.06
18164 H 33.08151677713943 28.33209618464531 98.51784758096791 H 0.0 **** 0.06
18165 H 31.323540816386526 28.542993746750412 98.33790587232347 H 0.0 **** 0.06
18166 C 177.29659485168503 175.0797961494602 52.09933896704547 C 0.0 **** -0.24
18167 H 178.34744507842376 174.85982714518246 52.28862660857695 H 0.0 **** 0.06
18168 H 176.771557177011 175.1872653784123 53.048719912191956 H 0.0 **** 0.06
18169 H 176.85285158499815 174.26518980026452 51.52789540370935 H 0.0 **** 0.06
18170 H 177.21670167844704 176.00741671639878 51.53211102305113 H 0.0 **** 0.06
18171 C 168.57191456117266 75.11755439791322 138.19440498412996 C 0.0 **** -0.24
18172 H 169.47779718849665 75.37143175034514 137.64447925854262 H 0.0 **** 0.06
18173 H 168.65592397166884 74.10300671018403 138.58413537203666 H 0.0 **** 0.06
18174 H 167.7119290455448 75.18036401819278 137.52624162557873 H 0.0 **** 0.06
18175 H 168.44061986617808 75.81595045555868 139.02015856866012 H 0.0 **** 0.06
18176 C 72.55680620184306 25.497233155840945 90.4645728196948 C 0.0 **** -0.24
18177 H 72.12212707385339 26.19203032135954 91.18244627040717 H 0.0 **** 0.06
18178 H 73.33148474548213 26.00501842134969 89.88929318197087 H 0.0 **** 0.06
18179 H 71.77940701364136 25.138590629383827 89.78952880826195 H 0.0 **** 0.06
18180 H 72.99408677699748 24.651892846540136 90.99686583035252 H 0.0 **** 0.06
18181 C 76.43288659854773 183.69829751410018 180.13284055043113 C 0.0 **** -0.24
18182 H 75.97534849980451 184.5059901339814 180.70367053361235 H 0.0 **** 0.06
18183 H 75.6970275806517 183.27106500407027 179.45222668754548 H 0.0 **** 0.06
18184 H 76.78735084941894 182.9264895229523 180.8170648684093 H 0.0 **** 0.06
18185 H 77.27409407698065 184.09045016955324 179.56018300256846 H 0.0 **** 0.06
18186 C 161.56910450980524 125.8259708977235 118.58484180057233 C 0.0 **** -0.24
18187 H 162.38024405989503 125.10950940682244 118.4579603310758 H 0.0 **** 0.06
18188 H 161.97857381566024 126.83601404779716 118.61729338956236 H 0.0 **** 0.06
18189 H 161.0424552832878 125.61637954901772 119.51611159664834 H 0.0 **** 0.06
18190 H 160.87574163593422 125.74076336157589 117.74840474214658 H 0.0 **** 0.06
18191 C 76.90569341093743 1.1340044978692774 1.3382056555322492 C 0.0 **** -0.24
18192 H 76.8386383809364 1.8716806762289124 2.1376003215005284 H 0.0 **** 0.06
18193 H 76.41555010405631 0.21261828103666858 1.6511678218643198 H 0.0 **** 0.06
18194 H 77.95378046373753 0.9319723243308715 1.1172760420579522 H 0.0 **** 0.06
18195 H 76.41495795767082 1.5217304328031958 0.444768075632723 H 0.0 **** 0.06
18196 C 67.65402252391138 26.85670276682373 96.41566216412151 C 0.0 **** -0.24
18197 H 68.00091896555114 26.268650424429097 97.26592841016064 H 0.0 **** 0.06
18198 H 67.82323820488054 27.91509241212384 96.6140828725021 H 0.0 **** 0.06
18199 H 66.58932230678374 26.680394407190022 96.2628610805197 H 0.0 **** 0.06
18200 H 68.20350949805031 26.561372116501218 95.521356703933 H 0.0 **** 0.06
18201 C 33.01874208850586 20.74194552039961 39.434301831683456 C 0.0 **** -0.24
18202 H 32.81692693281309 19.678191517407242 39.564076455585536 H 0.0 **** 0.06
18203 H 32.5764088254316 21.29785023291754 40.26060781773748 H 0.0 **** 0.06
18204 H 32.58535684981281 21.081257087241028 38.493798645156616 H 0.0 **** 0.06
18205 H 34.09582842540148 20.907534565464147 39.41904909494498 H 0.0 **** 0.06
18206 C 88.70617647261389 163.18717377553108 66.13360215171552 C 0.0 **** -0.24
18207 H 89.21696959325459 163.8637512493029 65.4475294848196 H 0.0 **** 0.06
18208 H 89.32176832918753 163.03640354622215 67.0212109634656 H 0.0 **** 0.06
18209 H 88.53876383818294 162.229565623033 65.64035474417915 H 0.0 **** 0.06
18210 H 87.74847422576761 163.61892749655775 66.42347364450143 H 0.0 **** 0.06
18211 C 42.34697353687176 102.06426902150936 166.58086068313162 C 0.0 **** -0.24
18212 H 42.37173683423339 102.7590900287209 165.74165635808663 H 0.0 **** 0.06
18213 H 42.89189842648432 101.15702268235835 166.31926305861532 H 0.0 **** 0.06
18214 H 41.3114346451334 101.81329574623136 166.8132461654626 H 0.0 **** 0.06
18215 H 42.811438805105354 102.52926567052553 167.45115518810064 H 0.0 **** 0.06
18216 C 55.37647732255918 126.61910660548041 16.73871863814768 C 0.0 **** -0.24
18217 H 54.53003267684571 126.93032861014514 17.351403470514647 H 0.0 **** 0.06
18218 H 56.279445629196715 126.60299526386255 17.34885634358639 H 0.0 **** 0.06
18219 H 55.5059491596151 127.32237131905272 15.916520285682218 H 0.0 **** 0.06
18220 H 55.18815908584777 125.6225404506619 16.338670494210668 H 0.0 **** 0.06
18221 C 64.12233611976801 112.21649954139842 93.11908286487206 C 0.0 **** -0.24
18222 H 64.9211685020008 112.45798084755982 93.82085347377158 H 0.0 **** 0.06
18223 H 64.47182793300776 112.38486291003615 92.1004540749607 H 0.0 **** 0.06
18224 H 63.26009648487869 112.85341205489921 93.3179009696129 H 0.0 **** 0.06
18225 H 63.83790462145775 111.17110328113962 93.23831265046802 H 0.0 **** 0.06
18226 C 74.71892016977249 7.087106857038592 74.64674311190407 C 0.0 **** -0.24
18227 H 75.12151823589868 7.769460155002228 75.39559032333085 H 0.0 **** 0.06
18228 H 73.65374940480406 7.27607612598122 74.51803340176332 H 0.0 **** 0.06
18229 H 74.86880179008982 6.059219489077442 74.97609005159296 H 0.0 **** 0.06
18230 H 75.23359918803673 7.243626961165987 73.69868914150487 H 0.0 **** 0.06
18231 C 66.28687105798188 53.05397708399988 64.69989809806287 C 0.0 **** -0.24
18232 H 66.79793320540793 52.74029116904393 63.789640995554294 H 0.0 **** 0.06
18233 H 65.45676386782915 52.37707570305179 64.90258244078586 H 0.0 **** 0.06
18234 H 65.90614486477781 54.06808329594452 64.57164225133218 H 0.0 **** 0.06
18235 H 66.9867189031929 53.03263250904831 65.53521047263337 H 0.0 **** 0.06
18236 C 122.2930389910796 15.19916099112416 81.9917231014598 C 0.0 **** -0.24
18237 H 122.38040710497778 15.224877514225625 80.90491637094773 H 0.0 **** 0.06
18238 H 122.93885717647127 15.962319015916677 82.42612276319535 H 0.0 **** 0.06
18239 H 122.59226251530818 14.217512435023224 82.35749725286195 H 0.0 **** 0.06
18240 H 121.25886887736526 15.393471161702848 82.27647405017633 H 0.0 **** 0.06
18241 C 152.1328020248428 23.196517197646045 124.47971201549757 C 0.0 **** -0.24
18242 H 153.16684394893832 23.180963488321765 124.8230642058221 H 0.0 **** 0.06
18243 H 152.02815249846435 23.923932347906018 123.67515684553871 H 0.0 **** 0.06
18244 H 151.47956483626328 23.47394121401311 125.307313650531 H 0.0 **** 0.06
18245 H 151.856691296382 22.207275239867585 124.11431143523373 H 0.0 **** 0.06
18246 C 130.3228364631649 10.894129328708345 44.31066082620164 C 0.0 **** -0.24
18247 H 130.0772899708516 11.949978170307958 44.42525362907773 H 0.0 **** 0.06
18248 H 131.40465659211554 10.77858275460278 44.23719256580664 H 0.0 **** 0.06
18249 H 129.85368995134394 10.508883829240375 43.405228429937765 H 0.0 **** 0.06
18250 H 129.95581817176333 10.340307035336537 45.1737585966154 H 0.0 **** 0.06
18251 C 42.66832135074884 51.15317242299764 10.722433640712495 C 0.0 **** -0.24
18252 H 42.90290098952221 50.1753295519533 10.302169355970818 H 0.0 **** 0.06
18253 H 43.43620993960633 51.430630705255595 11.445412485761153 H 0.0 **** 0.06
18254 H 41.69835631247497 51.11176267133361 11.218497581323277 H 0.0 **** 0.06
18255 H 42.63604188545892 51.89407032384206 9.922584442356367 H 0.0 **** 0.06
18256 C 146.06877947422353 170.16061689744137 90.88531799567386 C 0.0 **** -0.24
18257 H 145.59436625889253 169.20413332777244 90.66604272796428 H 0.0 **** 0.06
18258 H 145.63862092776742 170.57768230993028 91.79609757364983 H 0.0 **** 0.06
18259 H 145.90139131752403 170.84764943845855 90.05555545941058 H 0.0 **** 0.06
18260 H 147.1388788802102 170.01070931954845 91.02304709342968 H 0.0 **** 0.06
18261 C 104.219922769966 162.8572784612733 168.39009854164942 C 0.0 **** -0.24
18262 H 104.69278784288703 162.8008728971377 169.37014720269167 H 0.0 **** 0.06
18263 H 103.71917878243433 163.81905725309176 168.2820459554781 H 0.0 **** 0.06
18264 H 103.48983691437307 162.0535770106408 168.2914882006451 H 0.0 **** 0.06
18265 H 104.97920422022061 162.75442239571433 167.61450735724125 H 0.0 **** 0.06
18266 C 119.70416866944 56.40925571718938 108.59529944160236 C 0.0 **** -0.24
18267 H 119.3483165003709 57.439437248804694 108.5737444998014 H 0.0 **** 0.06
18268 H 119.93556427672281 56.084917055585976 107.58065621752799 H 0.0 **** 0.06
18269 H 118.93081834178052 55.76645130905868 109.01529362724817 H 0.0 **** 0.06
18270 H 120.60221118451004 56.347835482148895 109.2103519352632 H 0.0 **** 0.06
18271 C 12.064624877410694 47.65454283851733 142.91085562324093 C 0.0 **** -0.24
18272 H 13.083888648248745 47.32266064993877 143.11117279178075 H 0.0 **** 0.06
18273 H 11.434469811502055 47.4303469014051 143.771824351403 H 0.0 **** 0.06
18274 H 11.680304969634449 47.13434335440667 142.03303098938756 H 0.0 **** 0.06
18275 H 12.06250962954934 48.728434650660716 142.7277948913082 H 0.0 **** 0.06
18276 C 1.5743226083104673 184.45351565449155 21.331355907732814 C 0.0 **** -0.24
18277 H 1.1682790004927028 183.50625886890003 21.68473744065038 H 0.0 **** 0.06
18278 H 0.8050915474057092 184.9975900013352 20.783774835812743 H 0.0 **** 0.06
18279 H 2.4227541977829787 184.26238047565445 20.673948457385265 H 0.0 **** 0.06
18280 H 1.9034385036588333 185.04823369658445 22.183783942445913 H 0.0 **** 0.06
18281 C 88.62406400495392 13.141064191158307 62.248109932287434 C 0.0 **** -0.24
18282 H 89.43202865351763 13.7539988781337 62.647183297506615 H 0.0 **** 0.06
18283 H 87.67234513937397 13.649220474718106 62.403218778979465 H 0.0 **** 0.06
18284 H 88.61021073957578 12.178964564177875 62.76083868441353 H 0.0 **** 0.06
18285 H 88.78249412474203 12.98158175224279 61.1814855302523 H 0.0 **** 0.06
18286 C 135.36024619939946 124.11926826255875 8.137472278236316 C 0.0 **** -0.24
18287 H 134.873341781749 123.35562599311625 8.744476355557111 H 0.0 **** 0.06
18288 H 135.96720629619495 124.7585979400525 8.778803999095544 H 0.0 **** 0.06
18289 H 134.60385289848762 124.72124250356727 7.635131238916301 H 0.0 **** 0.06
18290 H 135.99723801632143 123.64030703463548 7.393448121255517 H 0.0 **** 0.06
18291 C 156.66961424673525 24.482183715814017 94.94435004854391 C 0.0 **** -0.24
18292 H 156.21760502691407 24.43512948787192 93.95399207836176 H 0.0 **** 0.06
18293 H 156.52387346506111 23.52938991635976 95.45473813553825 H 0.0 **** 0.06
18294 H 156.20049022618252 25.279167559025467 95.52062320570973 H 0.0 **** 0.06
18295 H 157.73663620337865 24.682998414514785 94.84716481754855 H 0.0 **** 0.06
18296 C 119.90349941964325 90.96363993997646 10.934514438824039 C 0.0 **** -0.24
18297 H 119.29377705118407 90.9663286516098 10.030363015648703 H 0.0 **** 0.06
18298 H 119.33638756453684 90.51807569494112 11.75237141506301 H 0.0 **** 0.06
18299 H 120.17358300921967 91.98780894931615 11.193460530502705 H 0.0 **** 0.06
18300 H 120.80893904734887 90.38229466421537 10.760353264962106 H 0.0 **** 0.06
18301 C 94.18154709586487 14.948258337391927 148.00426862940694 C 0.0 **** -0.24
18302 H 94.07658072476953 15.729292753234596 148.75736933162898 H 0.0 **** 0.06
18303 H 93.37521308548607 15.035137584669037 147.27600025634302 H 0.0 **** 0.06
18304 H 94.13429751045949 13.970992066713592 148.4846335681497 H 0.0 **** 0.06
18305 H 95.14097194580565 15.058314508396307 147.49821134549666 H 0.0 **** 0.06
18306 C 174.11106726973412 12.966781542878444 151.79909812131973 C 0.0 **** -0.24
18307 H 174.18025615262587 11.898269329283742 151.59492683706804 H 0.0 **** 0.06
18308 H 174.08881204443625 13.129693057984923 152.87630649920868 H 0.0 **** 0.06
18309 H 173.20005405741128 13.363748757993989 151.35134895272324 H 0.0 **** 0.06
18310 H 174.9766337858881 13.47397254728292 151.37250315823923 H 0.0 **** 0.06
18311 C 109.18934211864264 113.6226247226681 120.57379103201994 C 0.0 **** -0.24
18312 H 108.75553526921205 112.62274293007415 120.56357436334086 H 0.0 **** 0.06
18313 H 109.05271603184796 114.06791388924391 121.55968872171816 H 0.0 **** 0.06
18314 H 108.69402291602394 114.24107760694277 119.82441441608371 H 0.0 **** 0.06
18315 H 110.25336101309448 113.5597624317313 120.34749152249547 H 0.0 **** 0.06
18316 C 131.59080961953072 85.48598407123522 54.24797563893151 C 0.0 **** -0.24
18317 H 131.59493688381622 86.51424106191216 54.61050137064976 H 0.0 **** 0.06
18318 H 130.9771506130681 85.4193921530999 53.34952502454226 H 0.0 **** 0.06
18319 H 131.18140663985224 84.83166665999029 55.017662776823045 H 0.0 **** 0.06
18320 H 132.61098024536756 85.17951281875405 54.01613811673852 H 0.0 **** 0.06
18321 C 179.30309265056363 180.93151645347052 123.49349118123939 C 0.0 **** -0.24
18322 H 178.4714635149618 180.9635402192775 122.78922998312089 H 0.0 **** 0.06
18323 H 179.64370033683386 179.90239930367 123.60675924776996 H 0.0 **** 0.06
18324 H 178.97431935606687 181.31437826480243 124.45977029417884 H 0.0 **** 0.06
18325 H 180.12100255975602 181.5468489807111 123.11869040189231 H 0.0 **** 0.06
18326 C 21.820762438404017 38.52079466244703 171.79444152962571 C 0.0 **** -0.24
18327 H 22.80245080226956 38.53175757202172 171.32259929573235 H 0.0 **** 0.06
18328 H 21.746513184166474 37.658027680144755 172.45824542036553 H 0.0 **** 0.06
18329 H 21.04890030992493 38.45677655785511 171.02732686683538 H 0.0 **** 0.06
18330 H 21.684741862492615 39.43524511385158 172.37130383813945 H 0.0 **** 0.06
18331 C 98.61088859493627 5.816781432020235 119.6766651058713 C 0.0 **** -0.24
18332 H 98.93793932875978 4.9241261738485775 120.20895050544372 H 0.0 **** 0.06
18333 H 99.08914698434747 6.694666533343522 120.11210861294155 H 0.0 **** 0.06
18334 H 97.5278466339174 5.914326536105051 119.7594627955488 H 0.0 **** 0.06
18335 H 98.88872605294979 5.735258257910786 118.62548876492711 H 0.0 **** 0.06
18336 C 138.13342334934703 112.40036018960808 10.399088002475786 C 0.0 **** -0.24
18337 H 137.62103711590396 113.07682840725442 11.083686044644914 H 0.0 **** 0.06
18338 H 139.08048941804122 112.84367214156077 10.092098217421423 H 0.0 **** 0.06
18339 H 137.50878779454342 112.23264283708266 9.521484056448806 H 0.0 **** 0.06
18340 H 138.32027827796804 111.45079345037146 10.900158452378335 H 0.0 **** 0.06
18341 C 169.61881650994977 13.55016837939786 37.2398460523454 C 0.0 **** -0.24
18342 H 170.5224054345198 13.106654235528651 36.820541097857614 H 0.0 **** 0.06
18343 H 169.5373309732287 13.280171561785323 38.29252082554922 H 0.0 **** 0.06
18344 H 168.74773556494765 13.179034993803498 36.70019491340645 H 0.0 **** 0.06
18345 H 169.6694956117013 14.634477473890229 37.144715821910495 H 0.0 **** 0.06
18346 C 88.74419163834837 25.55880848999213 154.22751150728251 C 0.0 **** -0.24
18347 H 88.43110323251129 25.829656605291106 153.21871205473923 H 0.0 **** 0.06
18348 H 89.32927785384378 24.63928956192916 154.19081748301636 H 0.0 **** 0.06
18349 H 87.86365402165397 25.40506074321631 154.85086492680765 H 0.0 **** 0.06
18350 H 89.3514780677174 26.360333981868294 154.64624101907063 H 0.0 **** 0.06
18351 C 52.536111095628115 13.307407361833071 171.90370124204733 C 0.0 **** -0.24
18352 H 53.6162349681872 13.42177706956656 171.99315147617926 H 0.0 **** 0.06
18353 H 52.03918363225114 14.051470637774969 172.52633942293602 H 0.0 **** 0.06
18354 H 52.24836982198701 12.308387919637141 172.23063161276428 H 0.0 **** 0.06
18355 H 52.242309275852506 13.448614271439283 170.86331070159213 H 0.0 **** 0.06
18356 C 110.18252403260499 143.18136552500354 152.15256989874825 C 0.0 **** -0.24
18357 H 110.10495218447602 143.76912790296433 153.06809018642258 H 0.0 **** 0.06
18358 H 111.23334946745388 143.00776964583815 151.9207343108588 H 0.0 **** 0.06
18359 H 109.71382055995906 143.72504106373438 151.33154166691713 H 0.0 **** 0.06
18360 H 109.67789311876294 142.22548336428537 152.29098696601596 H 0.0 **** 0.06
18361 C 56.23382319983867 66.61903614161582 88.85802073973207 C 0.0 **** -0.24
18362 H 56.509895494093 66.96859764940022 87.86306736908716 H 0.0 **** 0.06
18363 H 56.71023701769542 67.24853927696263 89.61007862187267 H 0.0 **** 0.06
18364 H 56.564872536353676 65.5877375776639 88.98537851863472 H 0.0 **** 0.06
18365 H 55.15155363413959 66.67027251851675 88.97292400415137 H 0.0 **** 0.06
18366 C 91.38623285675563 164.32620861404493 119.29411987659394 C 0.0 **** -0.24
18367 H 91.12997140002754 163.30404332564868 119.01333778568856 H 0.0 **** 0.06
18368 H 91.59464261578857 164.36647990517804 120.36342758155952 H 0.0 **** 0.06
18369 H 90.55091109251124 164.98702698413666 119.06111341573204 H 0.0 **** 0.06
18370 H 92.26819505548063 164.64476282820488 118.73901966917983 H 0.0 **** 0.06
18371 C 81.11926112105948 59.38285925536121 148.2240552723665 C 0.0 **** -0.24
18372 H 81.1326069725909 60.39774314250165 147.8263217517133 H 0.0 **** 0.06
18373 H 80.11706916950953 59.145950830951605 148.58118417452988 H 0.0 **** 0.06
18374 H 81.82716074160794 59.30621266670454 149.0486574569402 H 0.0 **** 0.06
18375 H 81.40012225425971 58.68131609995318 147.43783353832617 H 0.0 **** 0.06
18376 C 167.0555740862568 89.72730058975505 28.158203770505963 C 0.0 **** -0.24
18377 H 167.60089304749386 90.55644707971031 27.70805526521653 H 0.0 **** 0.06
18378 H 167.7284539671349 89.15220548528724 28.793855905275564 H 0.0 **** 0.06
18379 H 166.65841241755408 89.08448447778174 27.372179321022315 H 0.0 **** 0.06
18380 H 166.23325343591512 90.11721827042469 28.758571431223487 H 0.0 **** 0.06
18381 C 40.8285281636075 80.21433956338075 87.36848471302075 C 0.0 **** -0.24
18382 H 40.38330217375551 81.04617277284547 86.8215452988248 H 0.0 **** 0.06
18383 H 41.84863080954929 80.47243610294697 87.65210262564544 H 0.0 **** 0.06
18384 H 40.839926363465395 79.32829461131593 86.73391967958908 H 0.0 **** 0.06
18385 H 40.24134422133517 80.01280033350645 88.26420973259768 H 0.0 **** 0.06
18386 C 55.664534055299924 161.80491689173883 37.75856523621954 C 0.0 **** -0.24
18387 H 55.53337280206338 162.74855653965597 38.28846646518355 H 0.0 **** 0.06
18388 H 55.9599981658244 162.0044554770554 36.72878678327612 H 0.0 **** 0.06
18389 H 54.72573103933695 161.25028789184734 37.76745096549229 H 0.0 **** 0.06
18390 H 56.43751126791588 161.21685271452787 38.25263010894247 H 0.0 **** 0.06
18391 C 104.57221328877887 2.6163391543070773 184.89121940746946 C 0.0 **** -0.24
18392 H 105.52525603293947 3.142872964336078 184.8311605741541 H 0.0 **** 0.06
18393 H 103.77002203048323 3.2816866530027298 184.57046985026813 H 0.0 **** 0.06
18394 H 104.395079683235 2.300826758309256 185.9185114454462 H 0.0 **** 0.06
18395 H 104.60006369416368 1.741391017508299 184.2416499502752 H 0.0 **** 0.06
18396 C 130.40205569727152 184.98631818631722 46.76547829528823 C 0.0 **** -0.24
18397 H 130.57069101346224 183.9206851708853 46.92197359768038 H 0.0 **** 0.06
18398 H 131.16835148678138 185.38073511275883 46.097141218947144 H 0.0 **** 0.06
18399 H 130.45055085357217 185.50621547011608 47.721781267187126 H 0.0 **** 0.06
18400 H 129.41899131911373 185.13627953024252 46.32000397684246 H 0.0 **** 0.06
18401 C 145.30931960408842 138.82187442703196 104.21695393202732 C 0.0 **** -0.24
18402 H 145.26837691644647 137.77308343650844 104.51275376859097 H 0.0 **** 0.06
18403 H 146.16350326659847 139.30090286740733 104.6952419009199 H 0.0 **** 0.06
18404 H 144.39203648450825 139.32237353790555 104.52487542802312 H 0.0 **** 0.06
18405 H 145.41445937847527 138.88920358901595 103.1339180202544 H 0.0 **** 0.06
18406 C 153.5860224394064 176.1476919257255 64.18000167924671 C 0.0 **** -0.24
18407 H 152.7862679814433 176.85823513293192 63.97349866069732 H 0.0 **** 0.06
18408 H 153.59158195991654 175.37431433714278 63.4118353148242 H 0.0 **** 0.06
18409 H 153.4219755182071 175.6904479621657 65.15586843937947 H 0.0 **** 0.06
18410 H 154.5431961983279 176.6682805892732 64.17957811557108 H 0.0 **** 0.06
18411 C 167.59094586885323 99.1299835164023 179.47110895500683 C 0.0 **** -0.24
18412 H 167.51461817912207 100.21040283338665 179.3515283131215 H 0.0 **** 0.06
18413 H 167.05728713599296 98.63613243278321 178.6584645978437 H 0.0 **** 0.06
18414 H 167.15237596027924 98.83805079792184 180.42444942146238 H 0.0 **** 0.06
18415 H 168.6406743489801 98.83628490703545 179.44833565816413 H 0.0 **** 0.06
18416 C 35.17551283036704 91.92083546266332 36.50423219113861 C 0.0 **** -0.24
18417 H 35.63699141611539 91.20715363945067 37.18611789477836 H 0.0 **** 0.06
18418 H 35.59058682138999 91.78912250929483 35.505337989351005 H 0.0 **** 0.06
18419 H 35.375377428503214 92.93492664210277 36.85110623012062 H 0.0 **** 0.06
18420 H 34.098864215925516 91.75278455429822 36.47671822868722 H 0.0 **** 0.06
18421 C 125.51506339032079 35.04408408808007 43.331043922985856 C 0.0 **** -0.24
18422 H 125.00049147941593 34.09554312253172 43.18067396498907 H 0.0 **** 0.06
18423 H 125.42328328219367 35.345916845078875 44.374380762741765 H 0.0 **** 0.06
18424 H 125.06733010119848 35.805504792574766 42.691315222800114 H 0.0 **** 0.06
18425 H 126.56897981788609 34.93070091459822 43.077353601428484 H 0.0 **** 0.06
18426 C 55.282677658636715 139.9329941637314 31.471999933102893 C 0.0 **** -0.24
18427 H 54.929479211093835 140.56355052731715 30.656578035255563 H 0.0 **** 0.06
18428 H 55.025883654989784 140.394006934047 32.42627843215925 H 0.0 **** 0.06
18429 H 56.365458852189576 139.82218999106647 31.402094840709353 H 0.0 **** 0.06
18430 H 54.81204083499284 138.95277966425317 31.403306031069746 H 0.0 **** 0.06
18431 C 110.04793426618517 2.9785792866199827 157.75448810946452 C 0.0 **** -0.24
18432 H 110.63118221091156 3.5265256628012978 158.49641535365086 H 0.0 **** 0.06
18433 H 110.44252292391104 3.183989078516909 156.75920675170175 H 0.0 **** 0.06
18434 H 109.00623022234066 3.295566595916391 157.80592834920355 H 0.0 **** 0.06
18435 H 110.11347010396867 1.9102670863474458 157.9586582331537 H 0.0 **** 0.06
18436 C 89.40490593800746 149.87660436035134 59.38327173794484 C 0.0 **** -0.24
18437 H 89.28785056729413 150.9378037414745 59.16186646293208 H 0.0 **** 0.06
18438 H 89.54959271643287 149.74418924838938 60.456076179124494 H 0.0 **** 0.06
18439 H 90.2702717422905 149.48743494811083 58.84833294121279 H 0.0 **** 0.06
18440 H 88.51012473962163 149.338992612217 59.06815493472851 H 0.0 **** 0.06
18441 C 80.91639818756829 85.46165500939766 154.81166707719808 C 0.0 **** -0.24
18442 H 81.13740236532715 86.39363686490869 154.2909047988099 H 0.0 **** 0.06
18443 H 81.5851200475837 84.67854356244926 154.4511175565947 H 0.0 **** 0.06
18444 H 79.88310264658907 85.17457966759125 154.6208624724307 H 0.0 **** 0.06
18445 H 81.06340177697655 85.60052561620616 155.88245522019017 H 0.0 **** 0.06
18446 C 140.79233295441696 29.124153601043417 167.32574870602804 C 0.0 **** -0.24
18447 H 140.88863869554285 28.407799938550852 168.1408615611885 H 0.0 **** 0.06
18448 H 139.77569529676032 29.094206455693552 166.93336316541036 H 0.0 **** 0.06
18449 H 141.49600065111616 28.869644344807398 166.53279020189916 H 0.0 **** 0.06
18450 H 141.00948827490043 30.126624561357403 167.69596206335189 H 0.0 **** 0.06
18451 C 4.030960840454583 106.72001442099709 150.68039110349218 C 0.0 **** -0.24
18452 H 5.0631427478181195 106.47268656191365 150.43310221560836 H 0.0 **** 0.06
18453 H 3.4193022433836404 106.66681405615704 149.77917699421045 H 0.0 **** 0.06
18454 H 3.987866975674166 107.72921820639631 151.09010564360162 H 0.0 **** 0.06
18455 H 3.654667928779304 106.01207340987433 151.4187687369283 H 0.0 **** 0.06
18456 C 88.5341568355115 134.8410233543172 12.692390748961714 C 0.0 **** -0.24
18457 H 89.37200208266798 134.14768822329256 12.62810957211093 H 0.0 **** 0.06
18458 H 87.67183073063454 134.4172904185504 12.176732456216456 H 0.0 **** 0.06
18459 H 88.80870283260457 135.78640535938683 12.224590877577867 H 0.0 **** 0.06
18460 H 88.28350794298548 135.0130860111696 13.73889823857354 H 0.0 **** 0.06
18461 C 77.77772741106463 5.939323420454116 138.52119086075027 C 0.0 **** -0.24
18462 H 78.77805003540101 5.712094576420725 138.88804373614988 H 0.0 **** 0.06
18463 H 77.65645609703665 5.527666632018963 137.51846290265388 H 0.0 **** 0.06
18464 H 77.64007791872336 7.0202271885347045 138.4890189724665 H 0.0 **** 0.06
18465 H 77.03704259140062 5.498173242847713 139.18838190430148 H 0.0 **** 0.06
18466 C 98.0450945869938 33.82558176649444 103.25677496358072 C 0.0 **** -0.24
18467 H 98.42645010086005 34.821379622327356 103.48522625728252 H 0.0 **** 0.06
18468 H 98.63590241584825 33.07956157998272 103.78901398233997 H 0.0 **** 0.06
18469 H 98.11658802931208 33.64810280488162 102.18294429296354 H 0.0 **** 0.06
18470 H 97.00311208271955 33.755629490495366 103.56752965869181 H 0.0 **** 0.06
18471 C 12.827514874520013 16.115164807281417 23.15264675496286 C 0.0 **** -0.24
18472 H 11.822869285621557 15.86311091658456 22.811484816693564 H 0.0 **** 0.06
18473 H 13.27813992227076 15.242970990286096 23.627257541131257 H 0.0 **** 0.06
18474 H 12.772012739315919 16.93259985477971 23.870851318109914 H 0.0 **** 0.06
18475 H 13.434460515139513 16.420153203532152 22.300816722708674 H 0.0 **** 0.06
18476 C 4.729889838800801 52.8447048869553 99.44082515534306 C 0.0 **** -0.24
18477 H 4.2046109983931 52.689363612353304 100.38330836310699 H 0.0 **** 0.06
18478 H 4.177226949825879 52.366321049165265 98.63261479719343 H 0.0 **** 0.06
18479 H 5.727470877277341 52.41110372446121 99.50621973287595 H 0.0 **** 0.06
18480 H 4.81091795427988 53.91361132378552 99.242906379379 H 0.0 **** 0.06
18481 C 120.7500534171715 108.33015681161532 94.90149592876942 C 0.0 **** -0.24
18482 H 121.78371964571136 108.3041286584949 95.24603042653284 H 0.0 **** 0.06
18483 H 120.28846067126739 107.3560509612443 95.0616623425375 H 0.0 **** 0.06
18484 H 120.7269642111088 108.5735649888419 93.83908041633451 H 0.0 **** 0.06
18485 H 120.20027933978861 109.08860666157466 95.46039546872443 H 0.0 **** 0.06
18486 C 26.27157028877798 83.8060657594026 103.15182354096015 C 0.0 **** -0.24
18487 H 25.620587312562066 83.18622240287722 102.53488695308221 H 0.0 **** 0.06
18488 H 25.998370747257866 84.85400868945943 103.0286448640631 H 0.0 **** 0.06
18489 H 27.307460437163456 83.66124883927375 102.84658592645957 H 0.0 **** 0.06
18490 H 26.157901699119748 83.52045011466826 104.19802024389168 H 0.0 **** 0.06
18491 C 151.06363490196065 104.53315399745117 168.88370401213956 C 0.0 **** -0.24
18492 H 150.05171040326272 104.17038339413693 169.0655327095545 H 0.0 **** 0.06
18493 H 151.6798850511558 103.71749224576627 168.5044388757836 H 0.0 **** 0.06
18494 H 151.4885324039837 104.9079089308969 169.8144452194595 H 0.0 **** 0.06
18495 H 151.03397174655555 105.33696306278972 168.1479931648622 H 0.0 **** 0.06
18496 C 70.0531463154066 12.243119722841016 92.70981462766555 C 0.0 **** -0.24
18497 H 69.98614888065339 11.70864761543038 93.65729880576878 H 0.0 **** 0.06
18498 H 69.24239766655057 11.924335397094524 92.05458447783631 H 0.0 **** 0.06
18499 H 71.01071560993341 12.025279509011341 92.2370736361204 H 0.0 **** 0.06
18500 H 69.9725580188609 13.315423459110264 92.89229099480092 H 0.0 **** 0.06
18501 C 1.5821909056815002 157.13735115248787 27.2341685820503 C 0.0 **** -0.24
18502 H 1.9414511481380714 158.01502760422346 26.698710424969022 H 0.0 **** 0.06
18503 H 2.392070585972249 156.41289433657414 27.32716116450331 H 0.0 **** 0.06
18504 H 0.7547175529196011 156.68913893881873 26.68364788354978 H 0.0 **** 0.06
18505 H 1.2411964266457858 157.4307525834912 28.227025938068834 H 0.0 **** 0.06
18506 C 41.05104816705628 148.46380631531645 118.97254824835522 C 0.0 **** -0.24
18507 H 42.105452265355666 148.40917875023638 118.700088688601 H 0.0 **** 0.06
18508 H 40.48314710221035 148.88740849592796 118.14332875252228 H 0.0 **** 0.06
18509 H 40.936416781756975 149.0976986494494 119.8522456596171 H 0.0 **** 0.06
18510 H 40.68054399574922 147.46340705849013 119.19432815807721 H 0.0 **** 0.06
18511 C 93.87447085640723 10.682533677693101 57.25875150073409 C 0.0 **** -0.24
18512 H 93.05823798848577 10.711347031728394 57.979021591498054 H 0.0 **** 0.06
18513 H 93.46893533103155 10.55889248768176 56.2541246149035 H 0.0 **** 0.06
18514 H 94.5337354170883 9.84607870322617 57.48936733351536 H 0.0 **** 0.06
18515 H 94.43752382239917 11.61405583360127 57.31033809771657 H 0.0 **** 0.06
18516 C 60.39895930581224 141.917528039469 35.06923943002701 C 0.0 **** -0.24
18517 H 59.803714637251346 141.0405058398868 34.817819115671114 H 0.0 **** 0.06
18518 H 61.352085569137216 141.87384191413906 34.541446637223856 H 0.0 **** 0.06
18519 H 60.57940817275784 141.93666062269932 36.144251302366825 H 0.0 **** 0.06
18520 H 59.861155374047144 142.81880328372372 34.775593010331846 H 0.0 **** 0.06
18521 C 109.02919186320186 183.42099034441463 168.00308578955153 C 0.0 **** -0.24
18522 H 108.46333644835094 182.551544379492 167.66759399955876 H 0.0 **** 0.06
18523 H 108.36034502520725 184.27607533037556 168.09612295728894 H 0.0 **** 0.06
18524 H 109.81071660466027 183.6464327223039 167.2777857377323 H 0.0 **** 0.06
18525 H 109.48191827979936 183.20635101230465 168.97121187479274 H 0.0 **** 0.06
18526 C 175.54840771051371 39.75431053260809 141.38780195175252 C 0.0 **** -0.24
18527 H 175.21987481382013 40.68636942370992 141.84590421496694 H 0.0 **** 0.06
18528 H 174.930982195255 39.541138407245 140.51603724443459 H 0.0 **** 0.06
18529 H 175.4541493268125 38.94215850151761 142.10866449005152 H 0.0 **** 0.06
18530 H 176.59068468153424 39.84858209502883 141.08146394337348 H 0.0 **** 0.06
18531 C 26.6467669697321 1.5863277285107529 30.767981053613198 C 0.0 **** -0.24
18532 H 27.58480418125066 1.112752462156486 30.477870684464477 H 0.0 **** 0.06
18533 H 26.85740229205429 2.5246302155774956 31.28071934604867 H 0.0 **** 0.06
18534 H 26.095199549943956 0.9231648267438857 31.433650405679828 H 0.0 **** 0.06
18535 H 26.050358465954176 1.785069377476276 29.877355417022244 H 0.0 **** 0.06
18536 C 178.06072347638232 102.79082844646847 36.57612273476448 C 0.0 **** -0.24
18537 H 178.84716040543583 102.96685597094448 37.31110210118072 H 0.0 **** 0.06
18538 H 177.09897374247333 103.08679328333803 36.9960484990271 H 0.0 **** 0.06
18539 H 178.03561388168583 101.73101578120882 36.31985915816867 H 0.0 **** 0.06
18540 H 178.2636050330086 103.37692836135342 35.68030841046124 H 0.0 **** 0.06
18541 C 102.54739732769536 145.619029048215 46.105729386855884 C 0.0 **** -0.24
18542 H 101.89999404113013 146.3829756519986 45.67579925117741 H 0.0 **** 0.06
18543 H 101.9365567712922 144.8297974646182 46.5452640414029 H 0.0 **** 0.06
18544 H 103.17355643349282 146.06656323464483 46.87902838793313 H 0.0 **** 0.06
18545 H 103.17990049603179 145.19797520373157 45.324668731068 H 0.0 **** 0.06
18546 C 99.23279841631809 29.922383076827174 67.77652609039204 C 0.0 **** -0.24
18547 H 98.70395012581749 30.79061732301892 68.17089795270905 H 0.0 **** 0.06
18548 H 99.50489707759176 29.260140810113626 68.59925866922353 H 0.0 **** 0.06
18549 H 100.13463312232294 30.249763921989143 67.26018774835246 H 0.0 **** 0.06
18550 H 98.58656095898975 29.390010293305636 67.07852986203424 H 0.0 **** 0.06
18551 C 86.10843399357213 30.701972987481597 173.32608984921043 C 0.0 **** -0.24
18552 H 86.18561933386934 31.58604761539624 173.95763224403697 H 0.0 **** 0.06
18553 H 87.04289774810866 30.560740418659805 172.78238199280105 H 0.0 **** 0.06
18554 H 85.29241351393296 30.833264596424172 172.61516125614781 H 0.0 **** 0.06
18555 H 85.91195199385334 29.82767441293001 173.94631253429935 H 0.0 **** 0.06
18556 C 158.23607252713666 168.25281882209046 77.50852352039918 C 0.0 **** -0.24
18557 H 158.5541411233208 169.288161883825 77.6335534828636 H 0.0 **** 0.06
18558 H 158.6468198885795 167.6478934896014 78.31636712505012 H 0.0 **** 0.06
18559 H 158.59500863101766 167.87567562964128 76.55124496483963 H 0.0 **** 0.06
18560 H 157.1472245999869 168.2029965328478 77.53386734393817 H 0.0 **** 0.06
18561 C 79.5698164028563 95.30927223302393 139.11218053946828 C 0.0 **** -0.24
18562 H 79.93167485189122 94.3913596550936 138.6468146898311 H 0.0 **** 0.06
18563 H 80.04675609596507 96.16818660101188 138.6396966674332 H 0.0 **** 0.06
18564 H 79.8111968920436 95.29688212808179 140.17488289637203 H 0.0 **** 0.06
18565 H 78.48878853383258 95.3775382504976 138.9854489683069 H 0.0 **** 0.06
18566 C 102.85499796315732 63.70126152273404 81.92262729128782 C 0.0 **** -0.24
18567 H 103.72336160983424 63.064071581703885 82.08939933300474 H 0.0 **** 0.06
18568 H 102.84381793653752 64.03432818896779 80.88505707490782 H 0.0 **** 0.06
18569 H 102.90852646589038 64.56790489084327 82.58207505461826 H 0.0 **** 0.06
18570 H 101.94507820855951 63.13954656813003 82.13529070622008 H 0.0 **** 0.06
18571 C 106.13651349071762 168.70005799667436 0.3557174320875447 C 0.0 **** -0.24
18572 H 106.93762825195017 168.15464799990167 -0.14154748635050396 H 0.0 **** 0.06
18573 H 105.91639823137831 168.22704508082984 1.3138951147253977 H 0.0 **** 0.06
18574 H 105.24377890677442 168.68629109161148 -0.2703159715001391 H 0.0 **** 0.06
18575 H 106.44782559662741 169.73092416483382 0.5228552951670338 H 0.0 **** 0.06
18576 C 39.77435009798231 172.80714991210428 50.794886873189995 C 0.0 **** -0.24
18577 H 40.106828031055414 171.82400205503723 51.12737005715225 H 0.0 **** 0.06
18578 H 40.355875625838706 173.11183342855335 49.924120310578985 H 0.0 **** 0.06
18579 H 39.915821094491434 173.52926042765216 51.598324920418364 H 0.0 **** 0.06
18580 H 38.718125190149465 172.76222605825953 50.528388902836454 H 0.0 **** 0.06
18581 C 84.62634682261529 54.140048797709554 131.0496501487787 C 0.0 **** -0.24
18582 H 84.91950430395485 55.1828586231302 130.92864717065783 H 0.0 **** 0.06
18583 H 85.24985110742523 53.51107354353013 130.41417953430647 H 0.0 **** 0.06
18584 H 83.5804775040317 54.021852477065636 130.7641866815557 H 0.0 **** 0.06
18585 H 84.75367642401034 53.845622888896585 132.09152678618398 H 0.0 **** 0.06
18586 C 62.38480958502191 133.16549395463807 6.87443441631342 C 0.0 **** -0.24
18587 H 63.405918916328915 133.47923016603596 6.658560202079158 H 0.0 **** 0.06
18588 H 62.280396185175846 132.09986799413952 6.669958203391452 H 0.0 **** 0.06
18589 H 61.69199716461321 133.72573433381547 6.245750031576769 H 0.0 **** 0.06
18590 H 62.15982672906057 133.35781294840922 7.922883485853944 H 0.0 **** 0.06
18591 C 158.76875062345079 6.742478661252051 95.03787180006582 C 0.0 **** -0.24
18592 H 158.9548995901323 6.203531680017022 95.96730447544196 H 0.0 **** 0.06
18593 H 159.101603629157 7.774660822833624 95.1431913371609 H 0.0 **** 0.06
18594 H 157.7014581276345 6.724384025687186 94.81618127759079 H 0.0 **** 0.06
18595 H 159.317156152248 6.264375707098054 94.2252695955542 H 0.0 **** 0.06
18596 C 91.73858829234415 157.05315574770583 3.382718138324151 C 0.0 **** -0.24
18597 H 90.68840669436231 157.09605808726016 3.094681068671264 H 0.0 **** 0.06
18598 H 92.26961976816754 157.89853522623733 2.9462293647234787 H 0.0 **** 0.06
18599 H 92.17594708883574 156.12227659672664 3.0221177411665394 H 0.0 **** 0.06
18600 H 91.81812972642514 157.0940415599975 4.468848822619748 H 0.0 **** 0.06
18601 C 171.81613255233697 171.90882181843352 177.37641028669194 C 0.0 **** -0.24
18602 H 171.0019027742992 171.1867959830422 177.31656115007104 H 0.0 **** 0.06
18603 H 172.7621172785988 171.37963026407277 177.49174702385815 H 0.0 **** 0.06
18604 H 171.65864555232622 172.56338766652902 178.2326787713591 H 0.0 **** 0.06
18605 H 171.8409506371654 172.50325441813516 176.4628538727775 H 0.0 **** 0.06
18606 C 7.584739617909378 0.7590213905980363 185.37581194677043 C 0.0 **** -0.24
18607 H 6.717050282178434 0.15915318496408304 185.10244644095863 H 0.0 **** 0.06
18608 H 7.345750754783211 1.8173442717265402 185.25794999883905 H 0.0 **** 0.06
18609 H 8.422722543919434 0.5014237339415217 184.72873899432113 H 0.0 **** 0.06
18610 H 7.851610740316914 0.5603429906751103 186.4131498992071 H 0.0 **** 0.06
18611 C 48.69877376373091 64.49616802809689 17.73960332406986 C 0.0 **** -0.24
18612 H 47.78263131180563 64.85562810983271 18.209026203811533 H 0.0 **** 0.06
18613 H 49.179104329687306 65.31765960786794 17.207320021210393 H 0.0 **** 0.06
18614 H 48.45860953945578 63.698209318708905 17.03794359661495 H 0.0 **** 0.06
18615 H 49.373910230220304 64.1149415547473 18.50639828750468 H 0.0 **** 0.06
18616 C 7.426755484397432 11.66367882734992 65.63679443317032 C 0.0 **** -0.24
18617 H 7.123696204271425 11.175769136730452 66.56325736983959 H 0.0 **** 0.06
18618 H 7.426038601640585 10.934100722041904 64.82650704214701 H 0.0 **** 0.06
18619 H 8.427895696262397 12.077133237795813 65.75423404790463 H 0.0 **** 0.06
18620 H 6.726723480439034 12.466681021584797 65.40408419449552 H 0.0 **** 0.06
18621 C 172.6766610960604 117.18716270593609 95.84284089538649 C 0.0 **** -0.24
18622 H 173.00384065187717 116.86823122748683 96.832992217035 H 0.0 **** 0.06
18623 H 171.68515484172588 116.78219941418706 95.64006405855842 H 0.0 **** 0.06
18624 H 173.37895927250133 116.82357620030308 95.09330739668799 H 0.0 **** 0.06
18625 H 172.63798460050924 118.2766908003361 95.80707685565888 H 0.0 **** 0.06
18626 C 119.83705902172376 101.1395769185594 63.43667570411394 C 0.0 **** -0.24
18627 H 119.65784262611076 100.50748318913172 62.566855971310076 H 0.0 **** 0.06
18628 H 119.99391227945587 102.16743997848705 63.11175584690248 H 0.0 **** 0.06
18629 H 120.72238752060478 100.78576162774637 63.96607024569751 H 0.0 **** 0.06
18630 H 118.97461981497769 101.09483709329324 64.10103953756233 H 0.0 **** 0.06
18631 C 78.1245915307656 140.17705964514147 155.6722063849237 C 0.0 **** -0.24
18632 H 77.29129998281284 140.05274749389167 154.97986104133594 H 0.0 **** 0.06
18633 H 78.83858736565314 140.88885702600885 155.25635324841454 H 0.0 **** 0.06
18634 H 78.61501444611224 139.21699002494563 155.8264788741925 H 0.0 **** 0.06
18635 H 77.75081719331348 140.55174777448605 156.62488046525698 H 0.0 **** 0.06
18636 C 162.02111588114997 57.31283740510952 53.296416341515965 C 0.0 **** -0.24
18637 H 161.5871502881611 57.91783080126021 54.09232036250734 H 0.0 **** 0.06
18638 H 161.22411666041637 56.824488264825845 52.735401430242774 H 0.0 **** 0.06
18639 H 162.6762977445985 56.55738670798962 53.731379971555555 H 0.0 **** 0.06
18640 H 162.59848656083574 57.95188236160587 52.628119991609196 H 0.0 **** 0.06
18641 C 16.569100237060702 158.61314234062263 20.93818079126089 C 0.0 **** -0.24
18642 H 15.960597101202751 158.6828737787132 20.036847995059304 H 0.0 **** 0.06
18643 H 17.621826202632818 158.72159715945747 20.674438506448325 H 0.0 **** 0.06
18644 H 16.41095743953025 157.64361407032303 21.410265683921864 H 0.0 **** 0.06
18645 H 16.284968787454567 159.40574386384466 21.63038560761794 H 0.0 **** 0.06
18646 C 116.95232871714768 69.29231315096166 107.33315159821503 C 0.0 **** -0.24
18647 H 117.28246875681799 70.109844517125 107.97478888372446 H 0.0 **** 0.06
18648 H 117.22337561787737 69.51026141280835 106.29989533379897 H 0.0 **** 0.06
18649 H 115.87056528311166 69.18418153125936 107.41037065690752 H 0.0 **** 0.06
18650 H 117.4334257635835 68.36708753840588 107.64802542203613 H 0.0 **** 0.06
18651 C 68.53218339610578 44.15193934554145 162.3008339658128 C 0.0 **** -0.24
18652 H 68.33290655262829 44.91838439168016 161.55196542564673 H 0.0 **** 0.06
18653 H 67.70966941527502 44.120354386978576 163.0161713218468 H 0.0 **** 0.06
18654 H 69.45955479232893 44.38607627292045 162.82267353168004 H 0.0 **** 0.06
18655 H 68.6258984981443 43.182079716868 161.81165387780672 H 0.0 **** 0.06
18656 C 113.41228490742448 112.34530181836074 146.43224186106278 C 0.0 **** -0.24
18657 H 114.16407973891798 111.73634429850249 146.9338389321901 H 0.0 **** 0.06
18658 H 112.93925139521407 113.00846419295759 147.156472710525 H 0.0 **** 0.06
18659 H 112.6584919786953 111.69691583667584 145.98581247385533 H 0.0 **** 0.06
18660 H 113.88917585333213 112.93948911699435 145.6516011709237 H 0.0 **** 0.06
18661 C 104.19551267220236 141.22264074930155 170.19820475094355 C 0.0 **** -0.24
18662 H 103.2970446316187 141.59534831687114 169.705084438512 H 0.0 **** 0.06
18663 H 103.95820884459049 140.3055519378782 170.7392790698826 H 0.0 **** 0.06
18664 H 104.56388510121845 141.97241759974145 170.8971223054442 H 0.0 **** 0.06
18665 H 104.96046828413093 141.01625124020097 169.44958959786427 H 0.0 **** 0.06
18666 C 131.77304956166188 56.27288457395633 122.61854781478557 C 0.0 **** -0.24
18667 H 132.16164840093415 55.6600393118116 121.80455087582875 H 0.0 **** 0.06
18668 H 132.53788006745077 56.3813933197128 123.38779388858556 H 0.0 **** 0.06
18669 H 130.8933430150244 55.79133857736133 123.04574473925315 H 0.0 **** 0.06
18670 H 131.50004346288625 57.255503269448525 122.2344182522795 H 0.0 **** 0.06
18671 C 64.65941707092388 84.8277590224551 29.203160096473255 C 0.0 **** -0.24
18672 H 65.72532431720983 84.78136999361686 28.979387509863784 H 0.0 **** 0.06
18673 H 64.51963928243799 85.14129622713205 30.23802287540326 H 0.0 **** 0.06
18674 H 64.21549584498712 83.84265794681005 29.05794924677386 H 0.0 **** 0.06
18675 H 64.1792053087544 85.54433383358634 28.537620059989536 H 0.0 **** 0.06
18676 C 3.143688431705698 178.2913817422851 64.33996836533248 C 0.0 **** -0.24
18677 H 3.579227115291218 177.33841640219504 64.6403572434994 H 0.0 **** 0.06
18678 H 3.6015051381154137 179.0972024369632 64.9133401684459 H 0.0 **** 0.06
18679 H 2.0701102298936576 178.27453677133357 64.52918112506238 H 0.0 **** 0.06
18680 H 3.322619731395548 178.45266884760971 63.27682565251348 H 0.0 **** 0.06
18681 C 91.12134888321403 94.65123178556394 155.21823384376438 C 0.0 **** -0.24
18682 H 91.83194650272723 93.82627846064435 155.2760128727669 H 0.0 **** 0.06
18683 H 90.78091432337315 94.76588797857369 154.18907514184076 H 0.0 **** 0.06
18684 H 91.60600374417494 95.57035157408757 155.54639055165484 H 0.0 **** 0.06
18685 H 90.26775135340687 94.44009542561884 155.86253273669496 H 0.0 **** 0.06
18686 C 77.37655897321707 100.01209278110355 73.08374995439976 C 0.0 **** -0.24
18687 H 78.02713307107285 100.5174555810961 73.79727720569093 H 0.0 **** 0.06
18688 H 76.58617232027103 100.69397603982009 72.7677506523844 H 0.0 **** 0.06
18689 H 76.93293087400968 99.13470784810704 73.55389157224454 H 0.0 **** 0.06
18690 H 77.95932527114314 99.70445137121857 72.215294096354 H 0.0 **** 0.06
18691 C 17.619214749607174 137.23954321247447 35.24708659169498 C 0.0 **** -0.24
18692 H 18.678843553676415 136.98539472978416 35.225298887568556 H 0.0 **** 0.06
18693 H 17.470668505057276 138.2157988881633 34.78535805902793 H 0.0 **** 0.06
18694 H 17.2746664019553 137.27007303487824 36.280481828613475 H 0.0 **** 0.06
18695 H 17.053925838479024 136.48642735190094 34.69767661481103 H 0.0 **** 0.06
18696 C 58.77444534502811 15.554166627393982 120.42182772613312 C 0.0 **** -0.24
18697 H 58.96016169311679 14.539776870139974 120.77484928586513 H 0.0 **** 0.06
18698 H 59.61071966812126 15.881103602617372 119.80287387911237 H 0.0 **** 0.06
18699 H 58.67079468705336 16.223191591036482 121.27559964043049 H 0.0 **** 0.06
18700 H 57.85713815017294 15.57096600687592 119.83285602291015 H 0.0 **** 0.06
18701 C 95.92816809928978 158.93555005959328 41.17584496288275 C 0.0 **** -0.24
18702 H 95.42161957438587 158.00670995517495 41.437995710514414 H 0.0 **** 0.06
18703 H 95.69323846859264 159.19781706915882 40.143595728229855 H 0.0 **** 0.06
18704 H 97.00480974328129 158.80454407502327 41.28145533223167 H 0.0 **** 0.06
18705 H 95.59142375875398 159.7326486423565 41.838524717277124 H 0.0 **** 0.06
18706 C 157.94671837528148 120.74136361087149 174.94975736268958 C 0.0 **** -0.24
18707 H 158.2569338668065 120.3710188469913 173.97284566806636 H 0.0 **** 0.06
18708 H 157.88202755933742 121.8290563405091 174.9222076729443 H 0.0 **** 0.06
18709 H 158.67688461962405 120.43881905505656 175.70033741119596 H 0.0 **** 0.06
18710 H 156.97123869560795 120.32508092509373 175.20230933049885 H 0.0 **** 0.06
18711 C 106.507571623194 21.37954958734366 154.0016594265026 C 0.0 **** -0.24
18712 H 106.56510901167104 20.53234590165698 153.31695673838976 H 0.0 **** 0.06
18713 H 106.68135990152462 21.034369194583036 155.02144103241415 H 0.0 **** 0.06
18714 H 105.5198789564244 21.83411463572304 153.9342788541604 H 0.0 **** 0.06
18715 H 107.26579849654519 22.114801008063807 153.7325651763955 H 0.0 **** 0.06
18716 C 109.29978239379767 55.80790548751935 138.22552782766064 C 0.0 **** -0.24
18717 H 108.55722592007618 55.26053221927833 137.6436414222706 H 0.0 **** 0.06
18718 H 109.47714187381291 56.780417278970106 137.7644694411398 H 0.0 **** 0.06
18719 H 110.2302859696876 55.24149598233673 138.25142593127043 H 0.0 **** 0.06
18720 H 108.93083090104216 55.94864580330186 139.24191621031133 H 0.0 **** 0.06
18721 C 14.932627344586024 43.13785411637632 36.18847855878272 C 0.0 **** -0.24
18722 H 14.518031805121097 43.103253514386864 37.19558117591944 H 0.0 **** 0.06
18723 H 14.556193246892548 42.29201740801352 35.611928446523905 H 0.0 **** 0.06
18724 H 16.019978420541946 43.0866703358038 36.24166891053764 H 0.0 **** 0.06
18725 H 14.634824710427353 44.067877364437294 35.70523877476762 H 0.0 **** 0.06
18726 C 184.4051671957485 99.37426851086 95.43874964064969 C 0.0 **** -0.24
18727 H 183.3550176211973 99.21299446762985 95.68238034311457 H 0.0 **** 0.06
18728 H 184.91637846770877 99.80276057352678 96.30119498210445 H 0.0 **** 0.06
18729 H 184.48146832207644 100.0584059929699 94.59454743241224 H 0.0 **** 0.06
18730 H 184.86801663253706 98.42185028955844 95.17883174355734 H 0.0 **** 0.06
18731 C 57.57178152605579 160.06923340927608 98.19224458267091 C 0.0 **** -0.24
18732 H 58.09810893561634 159.12553378439299 98.33684696502344 H 0.0 **** 0.06
18733 H 56.687133311036135 159.9008443442587 97.57856958062943 H 0.0 **** 0.06
18734 H 58.23080249765556 160.77989803228346 97.69352771403616 H 0.0 **** 0.06
18735 H 57.27146834577303 160.4699222010701 99.16059052152177 H 0.0 **** 0.06
18736 C 85.43341506683696 7.961853806357681 123.46994961946119 C 0.0 **** -0.24
18737 H 84.45129921352114 8.366749860688714 123.22654462755177 H 0.0 **** 0.06
18738 H 85.3596435985185 6.882409039327172 123.598180284717 H 0.0 **** 0.06
18739 H 85.79451719770803 8.414162722568093 124.39300283109874 H 0.0 **** 0.06
18740 H 86.12795384930298 8.185397212505784 122.66001160041223 H 0.0 **** 0.06
18741 C 139.88002733963316 155.54699123377574 116.29458395907785 C 0.0 **** -0.24
18742 H 140.872681156868 155.12075425419064 116.44113023095248 H 0.0 **** 0.06
18743 H 139.488793463673 155.89379292176176 117.25121503532093 H 0.0 **** 0.06
18744 H 139.21604265124256 154.78694399784445 115.88347097874906 H 0.0 **** 0.06
18745 H 139.9440005950094 156.38654298865438 115.60241300102324 H 0.0 **** 0.06
18746 C 32.87478205119639 128.84152435629284 38.36607040386666 C 0.0 **** -0.24
18747 H 33.3606188698612 129.5508344914336 39.03569422923623 H 0.0 **** 0.06
18748 H 33.22366297755127 129.00700572901883 37.34691223660219 H 0.0 **** 0.06
18749 H 31.794451123369427 128.98341488196934 38.40900701734628 H 0.0 **** 0.06
18750 H 33.11963935855265 127.8243592025474 38.673110028070454 H 0.0 **** 0.06
18751 C 141.02660575751776 42.24467875276872 110.16396513861174 C 0.0 **** -0.24
18752 H 140.77637258074913 42.159252564739106 109.10707486146286 H 0.0 **** 0.06
18753 H 141.9986679141906 41.78597638927533 110.34517956886309 H 0.0 **** 0.06
18754 H 140.26760263740658 41.737141370786645 110.75858553163532 H 0.0 **** 0.06
18755 H 141.06434353139815 43.297658657934505 110.44404290659448 H 0.0 **** 0.06
18756 C 119.37873415921534 74.38929302693066 166.93221726995574 C 0.0 **** -0.24
18757 H 119.65147065395585 75.4354931070776 167.073268954063 H 0.0 **** 0.06
18758 H 118.5953816026486 74.31708103949313 166.1768149940285 H 0.0 **** 0.06
18759 H 119.01365427020359 73.97961779827335 167.87476609087514 H 0.0 **** 0.06
18760 H 120.25210771160495 73.82676441299549 166.60466953251805 H 0.0 **** 0.06
18761 C 19.302403682476957 29.79804465980385 173.1996217058314 C 0.0 **** -0.24
18762 H 19.477852074639316 30.59309643714755 173.92346620920887 H 0.0 **** 0.06
18763 H 20.08116664267645 29.823195057443456 172.43650565576704 H 0.0 **** 0.06
18764 H 18.32889921208823 29.94125484238114 172.73039866708828 H 0.0 **** 0.06
18765 H 19.322429595634915 28.833534754822608 173.70760791110297 H 0.0 **** 0.06
18766 C 71.16015636098149 64.6359590834702 117.45199815503652 C 0.0 **** -0.24
18767 H 71.83003563387336 65.35339117823395 116.97679678606075 H 0.0 **** 0.06
18768 H 71.72218289614273 63.74295865998795 117.7277350071394 H 0.0 **** 0.06
18769 H 70.3651727166262 64.36636876175379 116.75736414749541 H 0.0 **** 0.06
18770 H 70.72616073411967 65.0831928413304 118.34645672474913 H 0.0 **** 0.06
18771 C 113.11647076150138 119.75569425299638 112.7544729047885 C 0.0 **** -0.24
18772 H 112.47654798376948 120.59528372750366 112.48570408194924 H 0.0 **** 0.06
18773 H 114.10340233780249 119.89464751818635 112.31086669755625 H 0.0 **** 0.06
18774 H 112.67743710790546 118.8302157796838 112.381440175144 H 0.0 **** 0.06
18775 H 113.20973883731926 119.70239490334309 113.83869778155751 H 0.0 **** 0.06
18776 C 27.785148434692587 162.27701466972024 18.190160910993313 C 0.0 **** -0.24
18777 H 28.870696808975424 162.19674019844678 18.148856412491227 H 0.0 **** 0.06
18778 H 27.367100413478227 162.05700978494679 17.207294647047064 H 0.0 **** 0.06
18779 H 27.506503874758607 163.28844507591987 18.485276306382048 H 0.0 **** 0.06
18780 H 27.39490334624719 161.56574305664185 18.918188952756367 H 0.0 **** 0.06
18781 C 66.39593877026032 183.03333623998515 4.352384908856152 C 0.0 **** -0.24
18782 H 66.1335152278681 182.24229718928694 3.650291998991122 H 0.0 **** 0.06
18783 H 65.5487928657988 183.22930140809126 5.010946882932814 H 0.0 **** 0.06
18784 H 66.64462743882417 183.94036379092853 3.8005431242746397 H 0.0 **** 0.06
18785 H 67.25454888171998 182.72292103517572 4.94706668798662 H 0.0 **** 0.06
18786 C 99.53084482063105 133.9286724651518 162.9425025457991 C 0.0 **** -0.24
18787 H 100.00052844400255 134.87236622439212 163.22244500628136 H 0.0 **** 0.06
18788 H 99.9334087998003 133.59206985330314 161.98690362463478 H 0.0 **** 0.06
18789 H 98.45364826557028 134.07157267314756 162.85371916212156 H 0.0 **** 0.06
18790 H 99.73549600703205 133.18063316033994 163.7083918666778 H 0.0 **** 0.06
18791 C 96.03731768765391 69.97186755859465 69.29069481096195 C 0.0 **** -0.24
18792 H 96.15148618501746 68.98996581740523 68.831211522109 H 0.0 **** 0.06
18793 H 94.99095153052406 70.27349350490748 69.24684268364841 H 0.0 **** 0.06
18794 H 96.64843651339658 70.6977264870869 68.7539509538831 H 0.0 **** 0.06
18795 H 96.35865408867511 69.92413775312653 70.33134468281784 H 0.0 **** 0.06
18796 C 119.74115111459555 106.44934439904345 139.929245491325 C 0.0 **** -0.24
18797 H 118.87964308027979 106.93050128115736 140.39168393194592 H 0.0 **** 0.06
18798 H 120.0867122386497 107.0533535933633 139.08971479539792 H 0.0 **** 0.06
18799 H 119.45696695049178 105.45912525333667 139.57303379930687 H 0.0 **** 0.06
18800 H 120.5415557048489 106.35542280151687 140.66348428105147 H 0.0 **** 0.06
18801 C 51.83209478516005 21.975324658103602 73.14433296840797 C 0.0 **** -0.24
18802 H 51.037707833938555 22.390706145639484 73.76400380197136 H 0.0 **** 0.06
18803 H 51.92132765883258 22.55876572657303 72.22732838510221 H 0.0 **** 0.06
18804 H 51.59529129056051 20.940688797874316 72.89558186215638 H 0.0 **** 0.06
18805 H 52.7748993685841 22.01069331100564 73.69070916924234 H 0.0 **** 0.06
18806 C 89.82009410730761 10.931768506873368 55.111782708779984 C 0.0 **** -0.24
18807 H 88.96952007174399 11.250651845936375 54.508859327591736 H 0.0 **** 0.06
18808 H 90.41796754145214 11.802454884451691 55.38401053663044 H 0.0 **** 0.06
18809 H 90.43215072685247 10.235798969363998 54.537469659690004 H 0.0 **** 0.06
18810 H 89.46189045506596 10.439825495088513 56.01540350807261 H 0.0 **** 0.06
18811 C 87.83871203512803 85.68186513708952 151.7504625921826 C 0.0 **** -0.24
18812 H 87.95052533297803 85.77654461490829 150.67093356748416 H 0.0 **** 0.06
18813 H 86.79856527879338 85.45938273400009 151.9904015227126 H 0.0 **** 0.06
18814 H 88.13166032038902 86.61628779287781 152.2294343789968 H 0.0 **** 0.06
18815 H 88.47658461756305 84.8740096150326 152.11161551379698 H 0.0 **** 0.06
18816 C 72.75409130768611 81.5062575683173 8.041528758968724 C 0.0 **** -0.24
18817 H 73.13852792968822 80.72798284260816 7.383194293304598 H 0.0 **** 0.06
18818 H 71.90595799610372 81.11822314258728 8.606367279475194 H 0.0 **** 0.06
18819 H 72.43354419658544 82.36015875753523 7.445603725760407 H 0.0 **** 0.06
18820 H 73.53833510836688 81.81866553053852 8.730949737334726 H 0.0 **** 0.06
18821 C 82.16261346677317 129.15795848686787 71.66787330982862 C 0.0 **** -0.24
18822 H 81.79405388448508 128.60541679151015 70.80245264819456 H 0.0 **** 0.06
18823 H 82.97286906981086 128.59865532071404 72.1362462427133 H 0.0 **** 0.06
18824 H 81.3518548653179 129.29374122882695 72.38354145677368 H 0.0 **** 0.06
18825 H 82.5313899478893 130.13221007360488 71.34555958172126 H 0.0 **** 0.06
18826 C 34.07294207530339 127.00222565378606 66.3802200601101 C 0.0 **** -0.24
18827 H 34.80768385298836 127.2269285508114 65.60742158839906 H 0.0 **** 0.06
18828 H 34.38061155695749 127.46384932856758 67.31898172267702 H 0.0 **** 0.06
18829 H 34.00302608347468 125.92206548734175 66.51191346833303 H 0.0 **** 0.06
18830 H 33.10117004873638 127.395666969289 66.0831318485163 H 0.0 **** 0.06
18831 C 61.81660322583792 119.0924932983995 45.93170917154595 C 0.0 **** -0.24
18832 H 62.23782527151309 118.51661693801704 46.756063938543775 H 0.0 **** 0.06
18833 H 60.72978336989712 119.00973789840823 45.94857668102543 H 0.0 **** 0.06
18834 H 62.19658388670035 118.7058128372863 44.986330797375786 H 0.0 **** 0.06
18835 H 62.10306530603026 120.13991091058024 46.03755453526554 H 0.0 **** 0.06
18836 C 181.06998202523738 176.92560279386382 104.25651800484856 C 0.0 **** -0.24
18837 H 180.75126237174283 176.00609362429884 103.7658408947335 H 0.0 **** 0.06
18838 H 181.5466578875721 177.5791934529513 103.5257302487412 H 0.0 **** 0.06
18839 H 181.78035465043104 176.68631536955417 105.04876207119646 H 0.0 **** 0.06
18840 H 180.20349687435322 177.4288457695817 104.68441674323755 H 0.0 **** 0.06
18841 C 173.5175898433719 113.79530073203075 129.34921118257245 C 0.0 **** -0.24
18842 H 173.1877402620455 113.70058138067141 130.38435169995114 H 0.0 **** 0.06
18843 H 172.8320912968255 114.4477054460492 128.80792733322176 H 0.0 **** 0.06
18844 H 173.5290104381284 112.81052228060518 128.8816116248624 H 0.0 **** 0.06
18845 H 174.52071754691084 114.22009340796235 129.3257946213999 H 0.0 **** 0.06
18846 C 183.00750882902986 12.413799526300693 85.73563978840008 C 0.0 **** -0.24
18847 H 183.24221379261166 11.751559240672151 84.9025697215281 H 0.0 **** 0.06
18848 H 181.92833742963336 12.43447300543545 85.89020072008935 H 0.0 **** 0.06
18849 H 183.3613086807464 13.419688263422529 85.50930623050408 H 0.0 **** 0.06
18850 H 183.49763022827406 12.050565466847416 86.63774030493136 H 0.0 **** 0.06
18851 C 60.610970146967304 30.47752353967985 174.74066723736658 C 0.0 **** -0.24
18852 H 61.10404145163682 31.120082128719332 175.46921269147015 H 0.0 **** 0.06
18853 H 60.01323771464109 29.729107518994624 175.26183591008063 H 0.0 **** 0.06
18854 H 61.3628679357314 29.98019981062157 174.12834120069707 H 0.0 **** 0.06
18855 H 59.9647115948074 31.080734058216194 174.10307307509703 H 0.0 **** 0.06
18856 C 27.012852342616185 152.16108972653515 13.757570857808894 C 0.0 **** -0.24
18857 H 27.50198859216644 151.36634836178416 14.322394989772988 H 0.0 **** 0.06
18858 H 26.304436504013864 152.6816028745056 14.403530201562269 H 0.0 **** 0.06
18859 H 26.482709177762445 151.72986450517038 12.908504669605811 H 0.0 **** 0.06
18860 H 27.763286795737457 152.86477627248013 13.39865622140173 H 0.0 **** 0.06
18861 C 167.93108768063038 184.1687390860197 119.73224977232128 C 0.0 **** -0.24
18862 H 167.05366017647694 183.58563183683663 120.01542520036283 H 0.0 **** 0.06
18863 H 168.7693516796862 183.89506216897763 120.37286024121717 H 0.0 **** 0.06
18864 H 167.7140051631663 185.2307344308183 119.85025168234925 H 0.0 **** 0.06
18865 H 168.18372787839044 183.9629355151515 118.6923718132618 H 0.0 **** 0.06
18866 C 106.73429370240996 139.57008036445586 110.0498355160697 C 0.0 **** -0.24
18867 H 105.88362714896357 139.06086749228433 109.59760215520485 H 0.0 **** 0.06
18868 H 106.9493396957493 139.12584317912348 111.02236363354287 H 0.0 **** 0.06
18869 H 106.50004473432142 140.62695861661604 110.17682426172074 H 0.0 **** 0.06
18870 H 107.60547788129946 139.46620684578266 109.40228103502388 H 0.0 **** 0.06
18871 C 99.96159899969105 88.3182435328434 49.88288902877312 C 0.0 **** -0.24
18872 H 99.57366560424195 89.13055472117772 50.497643924044866 H 0.0 **** 0.06
18873 H 99.28100345421201 88.13623847811748 49.05046170122438 H 0.0 **** 0.06
18874 H 100.04705310310045 87.41505814440158 50.48705880017877 H 0.0 **** 0.06
18875 H 100.94334819294103 88.59195323836194 49.497135391921915 H 0.0 **** 0.06
18876 C 155.62706632704908 21.689689814429286 23.54534303953193 C 0.0 **** -0.24
18877 H 155.63968197060132 21.335376385385416 22.514141688308428 H 0.0 **** 0.06
18878 H 155.92705989237732 20.879563304121184 24.209937847249705 H 0.0 **** 0.06
18879 H 154.62019514345684 22.018680257574303 23.803635677723804 H 0.0 **** 0.06
18880 H 156.3203459988876 22.52371308609945 23.650494463868597 H 0.0 **** 0.06
18881 C 134.19501112777874 29.70268674526082 26.93819332531588 C 0.0 **** -0.24
18882 H 135.27159665121542 29.574576024856015 27.053069914290646 H 0.0 **** 0.06
18883 H 133.85534998984764 30.514402497596393 27.581265797443137 H 0.0 **** 0.06
18884 H 133.68705440322856 28.780098246077472 27.21727174616217 H 0.0 **** 0.06
18885 H 133.96733069118937 29.94229890435153 25.899448891539848 H 0.0 **** 0.06
18886 C 48.25730808647302 41.89623274267683 18.484006948096436 C 0.0 **** -0.24
18887 H 47.51991988908284 42.456126385713105 19.059107039043454 H 0.0 **** 0.06
18888 H 49.15139727004214 41.74568296854534 19.090219531642816 H 0.0 **** 0.06
18889 H 48.51809490001597 42.455622874504456 17.585501363855542 H 0.0 **** 0.06
18890 H 47.841558367411835 40.929281663554264 18.202873323883296 H 0.0 **** 0.06
18891 C 167.39996249576458 146.09011659230003 39.86557806022236 C 0.0 **** -0.24
18892 H 167.0082574635706 146.05760621664004 38.848938200156795 H 0.0 **** 0.06
18893 H 168.38075555283027 145.6144151075605 39.89088535678903 H 0.0 **** 0.06
18894 H 166.7216919136167 145.56029517921482 40.53334794249088 H 0.0 **** 0.06
18895 H 167.49126470417409 147.12733050031525 40.18694165835956 H 0.0 **** 0.06
18896 C 145.6193464659894 151.04484600161248 9.433228475919861 C 0.0 **** -0.24
18897 H 145.4964252285294 151.69640006851122 8.56753681369338 H 0.0 **** 0.06
18898 H 146.61414791359775 150.5994919897238 9.413498967227667 H 0.0 **** 0.06
18899 H 144.8679267436952 150.2565947861221 9.404043653748317 H 0.0 **** 0.06
18900 H 145.50020042011874 151.62743415618763 10.34684252457646 H 0.0 **** 0.06
18901 C 150.64605830861723 36.7292628467425 31.486912839324035 C 0.0 **** -0.24
18902 H 149.85794522026129 37.31853050485469 31.955591565338793 H 0.0 **** 0.06
18903 H 150.36172828837562 35.67686685156876 31.48848735714097 H 0.0 **** 0.06
18904 H 151.57474933033774 36.857422282747336 32.04351280610848 H 0.0 **** 0.06
18905 H 150.78897546364107 37.065548968773726 30.459306042714147 H 0.0 **** 0.06
18906 C 148.51453533157235 104.48723582940539 44.46588491684645 C 0.0 **** -0.24
18907 H 147.53619176071496 104.56596820097059 43.990187037572696 H 0.0 **** 0.06
18908 H 149.12854553499628 103.77360151605842 43.91635065559689 H 0.0 **** 0.06
18909 H 148.39229355652827 104.146490821611 45.493574134903554 H 0.0 **** 0.06
18910 H 148.9992327541497 105.4638395431964 44.46050224680724 H 0.0 **** 0.06
18911 C 142.76092776298697 9.968493265466094 32.1578073048521 C 0.0 **** -0.24
18912 H 141.7212176050694 9.63853167486613 32.13742217585795 H 0.0 **** 0.06
18913 H 143.36563868014227 9.301588597377929 31.543370790394903 H 0.0 **** 0.06
18914 H 143.1271947233333 9.950157553435702 33.18401521068742 H 0.0 **** 0.06
18915 H 142.82692278655173 10.983420294419034 31.765763752823347 H 0.0 **** 0.06
18916 C 42.442592206892726 10.210073211068718 110.78230680185835 C 0.0 **** -0.24
18917 H 43.36658169649506 10.749777650791103 110.9918107982834 H 0.0 **** 0.06
18918 H 41.63253952683294 10.633249324642321 111.3764069605236 H 0.0 **** 0.06
18919 H 42.56998220619393 9.158240792250538 111.03824373464103 H 0.0 **** 0.06
18920 H 42.20229435546871 10.29997649235974 109.72295572475527 H 0.0 **** 0.06
18921 C 40.079561946603306 162.4893772157116 44.154260529479785 C 0.0 **** -0.24
18922 H 39.78143362391492 161.49049892002688 43.83546275501594 H 0.0 **** 0.06
18923 H 41.146745787646694 162.49612378338443 44.37482680856763 H 0.0 **** 0.06
18924 H 39.52066366484404 162.7659847977453 45.047666536574084 H 0.0 **** 0.06
18925 H 39.86795500282889 163.202747073246 43.35758348229429 H 0.0 **** 0.06
18926 C 181.17155089064704 31.570353639638782 8.007264894436673 C 0.0 **** -0.24
18927 H 180.86862902993903 32.0472905522882 8.939147333022788 H 0.0 **** 0.06
18928 H 181.8008743321346 32.25383957282243 7.43736723217836 H 0.0 **** 0.06
18929 H 180.28624691605987 31.31832548702036 7.423348762202465 H 0.0 **** 0.06
18930 H 181.73095427175278 30.66120142145222 8.229614810206158 H 0.0 **** 0.06
18931 C 85.37285977307398 144.88547887684695 107.04840365087041 C 0.0 **** -0.24
18932 H 86.26186863357405 144.70061240470227 107.65233578690304 H 0.0 **** 0.06
18933 H 85.3923372660352 145.91067610413853 106.6789965178617 H 0.0 **** 0.06
18934 H 84.48232554958076 144.73545820101668 107.65892962223423 H 0.0 **** 0.06
18935 H 85.35579304005229 144.19515456436096 106.20563653680112 H 0.0 **** 0.06
18936 C 133.0069689309126 144.975832174223 78.93142733578833 C 0.0 **** -0.24
18937 H 133.48859291724574 144.09152066198726 79.35001648413333 H 0.0 **** 0.06
18938 H 132.0255270901149 144.70344336612314 78.54248180179616 H 0.0 **** 0.06
18939 H 133.62125862091483 145.3745792912102 78.12387716012051 H 0.0 **** 0.06
18940 H 132.8939902077633 145.7305656913145 79.70869784907211 H 0.0 **** 0.06
18941 C 78.73434872641572 55.271633795722835 146.8433087109681 C 0.0 **** -0.24
18942 H 77.65995722437847 55.31892027065956 147.02269730721594 H 0.0 **** 0.06
18943 H 79.19603914742927 56.208111449337025 147.15632615984026 H 0.0 **** 0.06
18944 H 78.91786621598531 55.11399814175209 145.78050925008253 H 0.0 **** 0.06
18945 H 79.16075692344201 54.44683990824382 147.4124707312225 H 0.0 **** 0.06
18946 C 143.01502920508324 53.34595889974065 116.72225724623969 C 0.0 **** -0.24
18947 H 142.19809980223687 54.06167191326267 116.63436198165833 H 0.0 **** 0.06
18948 H 143.76239730148444 53.551432643725406 115.95510611261084 H 0.0 **** 0.06
18949 H 142.6283007304175 52.33533538867658 116.59210516993419 H 0.0 **** 0.06
18950 H 143.47136513306327 53.435283798711765 117.70844838572079 H 0.0 **** 0.06
18951 C 142.12357798745091 183.65584787251544 71.73029189887967 C 0.0 **** -0.24
18952 H 142.85331558413145 183.22707854457005 72.41649685751501 H 0.0 **** 0.06
18953 H 142.34243505285525 183.3264503379595 70.71503026312968 H 0.0 **** 0.06
18954 H 142.17601621348592 184.74357251490105 71.77878624480374 H 0.0 **** 0.06
18955 H 141.12278381668585 183.3272703358879 72.01226214033969 H 0.0 **** 0.06
18956 C 143.57952584678577 72.78707098182808 118.65115268477592 C 0.0 **** -0.24
18957 H 144.0342309979719 71.84349063792985 118.95413410829389 H 0.0 **** 0.06
18958 H 142.52137233788443 72.62928480663754 118.4418465812688 H 0.0 **** 0.06
18959 H 144.076022016617 73.15732570154483 117.75464538429094 H 0.0 **** 0.06
18960 H 143.68736833770555 73.51593898084558 119.45356889035497 H 0.0 **** 0.06
18961 C 117.41765974717003 154.69989683272524 20.725063296598023 C 0.0 **** -0.24
18962 H 117.81350296236576 155.60648174843922 20.265751486686497 H 0.0 **** 0.06
18963 H 116.92459361494485 154.093289044802 19.964674466342103 H 0.0 **** 0.06
18964 H 116.70021589435333 154.96919241795797 21.49927549824133 H 0.0 **** 0.06
18965 H 118.23566498802745 154.13145272701746 21.16907919743676 H 0.0 **** 0.06
18966 C 109.73609528396092 117.7588183002269 101.42200246189543 C 0.0 **** -0.24
18967 H 110.77431208665148 118.00673420045361 101.64140830788409 H 0.0 **** 0.06
18968 H 109.08375445522582 118.52409142372669 101.84443457579778 H 0.0 **** 0.06
18969 H 109.4928619704218 116.7911501496015 101.86037018309736 H 0.0 **** 0.06
18970 H 109.59310041666312 117.71550385110929 100.34170864968672 H 0.0 **** 0.06
18971 C 180.5293749759202 96.1693377254784 52.803938766575214 C 0.0 **** -0.24
18972 H 181.02312412345074 96.81947361737987 52.08096747353865 H 0.0 **** 0.06
18973 H 179.61720285457528 96.64948441118416 53.159921314783546 H 0.0 **** 0.06
18974 H 181.19765509747063 95.9877732757649 53.645053721069544 H 0.0 **** 0.06
18975 H 180.2788300994718 95.2224618054848 52.32679036886667 H 0.0 **** 0.06
18976 C 66.53675157343821 174.89106965467187 141.0828599434618 C 0.0 **** -0.24
18977 H 67.1618794142361 175.40941489824752 140.35660397963784 H 0.0 **** 0.06
18978 H 66.06811895522031 175.62093870769434 141.7443507159794 H 0.0 **** 0.06
18979 H 67.15145218745283 174.20873149398471 141.67110919918775 H 0.0 **** 0.06
18980 H 65.76508129278088 174.3261114763951 140.5603414390061 H 0.0 **** 0.06
18981 C 39.24882269524241 67.36355840476187 39.68100187462821 C 0.0 **** -0.24
18982 H 39.489997074186036 67.67660829004373 38.664926058959736 H 0.0 **** 0.06
18983 H 39.942100078482454 66.58377519689441 39.99508619947085 H 0.0 **** 0.06
18984 H 38.230212473390864 66.9784198393391 39.710239372008175 H 0.0 **** 0.06
18985 H 39.333038109817934 68.21787893860854 40.35372365027132 H 0.0 **** 0.06
18986 C 44.046214147683514 139.22479407384964 34.03352254633296 C 0.0 **** -0.24
18987 H 43.43708840131602 139.8665818648238 33.398103326740284 H 0.0 **** 0.06
18988 H 45.09071533604359 139.30252200307916 33.73291319490727 H 0.0 **** 0.06
18989 H 43.71415379453322 138.19166100171765 33.93048204994153 H 0.0 **** 0.06
18990 H 43.94177071718323 139.53769550053488 35.07212863903587 H 0.0 **** 0.06
18991 C 135.29337854874802 113.41108304043144 40.36084000824542 C 0.0 **** -0.24
18992 H 135.63570310926258 113.02415284284382 41.32027800201419 H 0.0 **** 0.06
18993 H 135.96978636711071 113.0798626984182 39.57320500445775 H 0.0 **** 0.06
18994 H 135.2782576665163 114.50118029135575 40.39244287509655 H 0.0 **** 0.06
18995 H 134.2884917295567 113.03947262559996 40.15794454979036 H 0.0 **** 0.06
18996 C 91.1026219295044 149.21306052755085 49.59640817935866 C 0.0 **** -0.24
18997 H 90.89064350534748 149.63241865812802 50.5799178482842 H 0.0 **** 0.06
18998 H 92.14167161733205 149.412767049492 49.33202314427217 H 0.0 **** 0.06
18999 H 90.44508177071238 149.66989651497147 48.85690349443186 H 0.0 **** 0.06
19000 H 90.93326233161393 148.13582257955107 49.61636133241083 H 0.0 **** 0.06
19001 C 122.14599791639729 33.27333797870588 40.05947251301461 C 0.0 **** -0.24
19002 H 121.64771314899924 33.76204192405221 40.89741232963706 H 0.0 **** 0.06
19003 H 122.8620159924918 33.96201058005333 39.61091535121807 H 0.0 **** 0.06
19004 H 121.40415515957103 32.98367538756307 39.31508197247456 H 0.0 **** 0.06
19005 H 122.6686418946298 32.38577790154321 40.41643714800034 H 0.0 **** 0.06
19006 C 184.1282745632396 170.0104722737671 80.99536092657006 C 0.0 **** -0.24
19007 H 183.4113883686454 169.37916078015562 81.5196884271741 H 0.0 **** 0.06
19008 H 183.59507380393268 170.6886540601201 80.32809650214956 H 0.0 **** 0.06
19009 H 184.80556815404293 169.38531576514154 80.41365989477984 H 0.0 **** 0.06
19010 H 184.70059233905837 170.58947440432433 81.72051006476232 H 0.0 **** 0.06
19011 C 121.43217387663547 38.49941586207629 165.91644847492972 C 0.0 **** -0.24
19012 H 121.57190234692372 37.61091526879595 166.5323186051466 H 0.0 **** 0.06
19013 H 121.17821367982116 38.199781123745666 164.8991723911735 H 0.0 **** 0.06
19014 H 122.35458726397992 39.081773240917926 165.90428954376068 H 0.0 **** 0.06
19015 H 120.62618027745039 39.10439285212651 166.32925771865095 H 0.0 **** 0.06
19016 C 176.36707714043717 110.08146191599752 104.44363834436489 C 0.0 **** -0.24
19017 H 175.28660721507538 110.04463553562073 104.3047429867646 H 0.0 **** 0.06
19018 H 176.60123522685655 110.70842084793321 105.30436819036579 H 0.0 **** 0.06
19019 H 176.83423924936966 110.4979588357354 103.55117588271527 H 0.0 **** 0.06
19020 H 176.7457234710812 109.07290395952481 104.61410008625411 H 0.0 **** 0.06
19021 C 41.88477492270232 164.07065068201146 23.69981718732194 C 0.0 **** -0.24
19022 H 41.272322846319696 163.21536853236836 23.98584213309087 H 0.0 **** 0.06
19023 H 42.48029463255074 163.8136502758098 22.823916836549415 H 0.0 **** 0.06
19024 H 42.545868704821544 164.33514306231442 24.52454631401929 H 0.0 **** 0.06
19025 H 41.23930975215242 164.91709346061538 23.465659772559746 H 0.0 **** 0.06
19026 C 70.13706865663603 181.4850414953839 177.44239405660466 C 0.0 **** -0.24
19027 H 69.15131700416491 181.77868866686265 177.08085513064634 H 0.0 **** 0.06
19028 H 70.30914827940347 180.43405587346803 177.21182699385378 H 0.0 **** 0.06
19029 H 70.18712334279805 181.63369774172892 178.52108502899858 H 0.0 **** 0.06
19030 H 70.8984437236226 182.09470831413836 176.95586272091077 H 0.0 **** 0.06
19031 C 114.60756864464207 157.68916735903693 119.87355648323472 C 0.0 **** -0.24
19032 H 114.79127862982432 157.3308542143811 120.88592334771562 H 0.0 **** 0.06
19033 H 113.67791319337857 158.2591561200939 119.85401287356592 H 0.0 **** 0.06
19034 H 114.52675341901875 156.83841752487206 119.19708329251858 H 0.0 **** 0.06
19035 H 115.4328598716308 158.32773338620763 119.55881344724793 H 0.0 **** 0.06
19036 C 144.66231362319164 22.826162735662933 166.32237879910048 C 0.0 **** -0.24
19037 H 145.46144371725364 22.485950843738806 165.66429194464752 H 0.0 **** 0.06
19038 H 144.41540090648817 23.86255894449127 166.08878211645117 H 0.0 **** 0.06
19039 H 144.99040057374987 22.755225742857306 167.35988556228187 H 0.0 **** 0.06
19040 H 143.7807410664022 22.201253919242447 166.1770819355466 H 0.0 **** 0.06
19041 C 90.71164705248471 52.71878435838687 10.959120360756003 C 0.0 **** -0.24
19042 H 90.46587502147615 53.03647939775604 9.946487011119387 H 0.0 **** 0.06
19043 H 89.80059477948411 52.67455958376247 11.556392746964576 H 0.0 **** 0.06
19044 H 91.40417206145223 53.43287871050228 11.405573885493112 H 0.0 **** 0.06
19045 H 91.17483160713128 51.73303462240146 10.928708743524965 H 0.0 **** 0.06
19046 C 39.07395562394561 135.52102202706828 12.112147162091418 C 0.0 **** -0.24
19047 H 38.213215780930966 135.5425405962539 11.444368593742723 H 0.0 **** 0.06
19048 H 39.90709405653038 135.02504277064185 11.614813997518638 H 0.0 **** 0.06
19049 H 38.81511389751341 134.97513117962865 13.020215189924016 H 0.0 **** 0.06
19050 H 39.35892408734462 136.5403156214951 12.37083593522948 H 0.0 **** 0.06
19051 C 39.17938416167797 81.32706835363489 109.80159201846256 C 0.0 **** -0.24
19052 H 38.67781503317515 82.11866744761305 110.35840675467237 H 0.0 **** 0.06
19053 H 39.30547012336403 81.63809923362 108.76439122154589 H 0.0 **** 0.06
19054 H 38.57735296056913 80.4192968602502 109.83874987375786 H 0.0 **** 0.06
19055 H 40.15680821184277 81.13436390980341 110.24422685049306 H 0.0 **** 0.06
19056 C 147.4748928284128 70.87901806439852 83.6127514723614 C 0.0 **** -0.24
19057 H 146.5186878608232 70.61397136300482 83.16259189233125 H 0.0 **** 0.06
19058 H 147.53265865901517 70.45858770172254 84.61703419974418 H 0.0 **** 0.06
19059 H 147.56268106938757 71.96476715376856 83.66733662028969 H 0.0 **** 0.06
19060 H 148.2860586130966 70.47974418712349 83.00318373563066 H 0.0 **** 0.06
19061 C 113.4468946944604 96.98824011410308 138.49762310726754 C 0.0 **** -0.24
19062 H 113.41722508167162 98.0672289556807 138.3439312978478 H 0.0 **** 0.06
19063 H 112.47124179395767 96.56170664175066 138.26506134495958 H 0.0 **** 0.06
19064 H 113.69693636909166 96.77751660067595 139.53679878690969 H 0.0 **** 0.06
19065 H 114.20120037548536 96.54950535987906 137.84495925676327 H 0.0 **** 0.06
19066 C 31.657077250116373 73.40836440668684 32.49435268203834 C 0.0 **** -0.24
19067 H 30.598228178565478 73.27388137009078 32.712525294277825 H 0.0 **** 0.06
19068 H 31.80159707588456 73.46635035686518 31.415381403086016 H 0.0 **** 0.06
19069 H 32.220222056199475 72.56371462589583 32.89201718039115 H 0.0 **** 0.06
19070 H 32.00914371939342 74.32946159127701 32.95795544422779 H 0.0 **** 0.06
19071 C 102.14524442611612 3.23341992103974 99.06098773989753 C 0.0 **** -0.24
19072 H 101.09443676295054 2.9491311818349573 99.02357799044485 H 0.0 **** 0.06
19073 H 102.46155176587833 3.321536566994382 100.10055760146473 H 0.0 **** 0.06
19074 H 102.28113137386735 4.19173194461024 98.55792192846941 H 0.0 **** 0.06
19075 H 102.74560900309955 2.4726763842146795 98.560901709715 H 0.0 **** 0.06
19076 C 46.78816791383599 158.72677837421452 52.830052946453065 C 0.0 **** -0.24
19077 H 46.99678280238413 159.14866616117337 51.846970608491816 H 0.0 **** 0.06
19078 H 45.8029996894449 158.2611837159235 52.82400902518951 H 0.0 **** 0.06
19079 H 46.81155747176433 159.51942695021327 53.578442916416705 H 0.0 **** 0.06
19080 H 47.54368020806476 157.9783642413043 53.07124342450237 H 0.0 **** 0.06
19081 C 83.51986170522922 99.13687227845314 77.0817174274045 C 0.0 **** -0.24
19082 H 82.44766407674551 98.98372863094524 77.2024718085379 H 0.0 **** 0.06
19083 H 83.7747912297366 100.15970139442648 77.36060435994364 H 0.0 **** 0.06
19084 H 83.79762726555987 98.96250131873948 76.04226833152109 H 0.0 **** 0.06
19085 H 84.06087506875537 98.43965668180344 77.72328688794244 H 0.0 **** 0.06
19086 C 46.954359142306885 10.223805420987254 183.20260797081582 C 0.0 **** -0.24
19087 H 46.71581301611826 9.21313145378776 182.86999067852676 H 0.0 **** 0.06
19088 H 46.32330782751711 10.937840321469032 182.67359496731197 H 0.0 **** 0.06
19089 H 48.00173454076361 10.437646274375275 182.99038822878535 H 0.0 **** 0.06
19090 H 46.7767374677606 10.30487302496985 184.2747315338428 H 0.0 **** 0.06
19091 C 79.22925530262474 22.00887037139364 121.34820197250902 C 0.0 **** -0.24
19092 H 78.38975974820175 21.685531601697647 121.9636705885615 H 0.0 **** 0.06
19093 H 80.07929190292195 21.3465723470146 121.51825054818589 H 0.0 **** 0.06
19094 H 79.50360318188342 23.028937782195698 121.61352071428722 H 0.0 **** 0.06
19095 H 78.9444367434741 21.970711653159185 120.29705514707656 H 0.0 **** 0.06
19096 C 82.87221315593297 95.62225719077598 132.32914353629548 C 0.0 **** -0.24
19097 H 83.20850159889062 95.84475835859912 131.31675049864077 H 0.0 **** 0.06
19098 H 82.28491666755792 96.45893118634267 132.70925254140207 H 0.0 **** 0.06
19099 H 83.73681333190984 95.46316260471112 132.9725172836571 H 0.0 **** 0.06
19100 H 82.25679681855354 94.72245802698997 132.31679160142477 H 0.0 **** 0.06
19101 C 108.81562819596326 173.4005265699642 0.8845721324266478 C 0.0 **** -0.24
19102 H 108.6484277292804 173.50666068989858 -0.18665654641205265 H 0.0 **** 0.06
19103 H 109.71086675520951 172.8020086845225 1.0547797689174843 H 0.0 **** 0.06
19104 H 107.95637243183677 172.9076611294469 1.3396298846168762 H 0.0 **** 0.06
19105 H 108.94812002975505 174.38638936444596 1.3305271009130877 H 0.0 **** 0.06
19106 C 173.29176144857368 46.63739306069573 8.484474390765598 C 0.0 **** -0.24
19107 H 172.6612889162483 45.86785883938734 8.036590605360516 H 0.0 **** 0.06
19108 H 174.0407858119917 46.95928727000921 7.760118804783758 H 0.0 **** 0.06
19109 H 173.78750267746807 46.23109425541935 9.366016377501268 H 0.0 **** 0.06
19110 H 172.67544584689438 47.48798018744361 8.773254494706038 H 0.0 **** 0.06
19111 C 36.78763292191525 103.70277501822305 173.26589630319603 C 0.0 **** -0.24
19112 H 36.13734442785244 104.56243587000272 173.1058761709973 H 0.0 **** 0.06
19113 H 36.47409026335873 103.17342062283849 174.16653736797014 H 0.0 **** 0.06
19114 H 37.81588660634918 104.04334519199124 173.38443179021613 H 0.0 **** 0.06
19115 H 36.72250140533578 103.03306032661389 172.4085139644822 H 0.0 **** 0.06
19116 C 9.401645575923531 172.86661855919053 3.188773166007735 C 0.0 **** -0.24
19117 H 10.380663445959613 172.39219719873626 3.262167762444861 H 0.0 **** 0.06
19118 H 8.677326240192073 172.29472142492477 3.7698321659232334 H 0.0 **** 0.06
19119 H 9.090040391791106 172.8937877095771 2.144594344741108 H 0.0 **** 0.06
19120 H 9.459441187593 173.88296789584854 3.577890175255135 H 0.0 **** 0.06
19121 C 126.5872496475814 38.538176563468 143.74621715454967 C 0.0 **** -0.24
19122 H 127.49935388996538 38.170803034528646 144.21684855132645 H 0.0 **** 0.06
19123 H 126.3068819699047 39.492938731280475 144.19196321492507 H 0.0 **** 0.06
19124 H 125.78391313123994 37.81662113785191 143.89755317828656 H 0.0 **** 0.06
19125 H 126.75884959921537 38.67234335021092 142.67850367366066 H 0.0 **** 0.06
19126 C 173.99524340875362 164.1441852813631 67.09843775528978 C 0.0 **** -0.24
19127 H 173.21182729678125 163.64857751008915 66.52572973413426 H 0.0 **** 0.06
19128 H 173.59263440698112 164.47010877338116 68.05780434171585 H 0.0 **** 0.06
19129 H 174.3596794497705 165.00940414753552 66.54369179991413 H 0.0 **** 0.06
19130 H 174.81683248148147 163.44865069444654 67.26652514539478 H 0.0 **** 0.06
19131 C 78.71892263507259 8.40173044666576 59.226508934114406 C 0.0 **** -0.24
19132 H 78.49169865418013 8.762448364594697 60.230575791355676 H 0.0 **** 0.06
19133 H 77.98305406630077 8.795281939196187 58.52471619040443 H 0.0 **** 0.06
19134 H 78.6851749023472 7.313245608095109 59.21596572645336 H 0.0 **** 0.06
19135 H 79.7141475636324 8.738343273247601 58.93715362471397 H 0.0 **** 0.06
19136 C 129.62606262076332 128.9102546486139 116.992350293259 C 0.0 **** -0.24
19137 H 129.79160847634978 129.62270868286777 116.18522320216732 H 0.0 **** 0.06
19138 H 130.3275816935319 129.11095029606338 117.80325328194436 H 0.0 **** 0.06
19139 H 129.78125295233787 127.89701228291868 116.62006107336765 H 0.0 **** 0.06
19140 H 128.60563909629883 129.00920250052485 117.361441740342 H 0.0 **** 0.06
19141 C 77.65512447390982 50.915841928658395 158.97905538082375 C 0.0 **** -0.24
19142 H 78.67521025797129 51.28539583360124 158.87294093687123 H 0.0 **** 0.06
19143 H 77.62278483232578 50.161555883863315 159.76561376225712 H 0.0 **** 0.06
19144 H 77.32967264335956 50.47363471803837 158.03748315833164 H 0.0 **** 0.06
19145 H 76.99420141776602 51.74307145024029 159.2403721007948 H 0.0 **** 0.06
19146 C 34.01906843408858 140.59184408062168 51.412495578098515 C 0.0 **** -0.24
19147 H 33.239916333920576 140.65351749063615 50.65256086679051 H 0.0 **** 0.06
19148 H 34.94222169749949 140.23117565189915 50.95742664747746 H 0.0 **** 0.06
19149 H 33.706905049537625 139.90159615131432 52.196859782851845 H 0.0 **** 0.06
19150 H 34.18606971406473 141.57907299646666 51.84236298034591 H 0.0 **** 0.06
19151 C 72.0013973537898 56.821592294383294 0.34490125430339447 C 0.0 **** -0.24
19152 H 72.45327758083499 57.396531857282156 1.1535879291325557 H 0.0 **** 0.06
19153 H 72.52508277582518 55.87170708205127 0.23746743942493964 H 0.0 **** 0.06
19154 H 72.07467439486402 57.38465663226992 -0.5858352305252694 H 0.0 **** 0.06
19155 H 70.95175753351845 56.63463908569591 0.574464188209383 H 0.0 **** 0.06
19156 C 35.83987493458028 70.84408170309281 112.74499643263205 C 0.0 **** -0.24
19157 H 36.64906798689094 71.57480932717188 112.71993374294779 H 0.0 **** 0.06
19158 H 35.20303030652656 70.97787481840369 111.87142122222032 H 0.0 **** 0.06
19159 H 35.25047210215581 70.98762921166959 113.65101287621802 H 0.0 **** 0.06
19160 H 36.25958299257471 69.83773777407653 112.7402608584775 H 0.0 **** 0.06
19161 C 153.9745917942236 44.556721688436085 104.43269610298803 C 0.0 **** -0.24
19162 H 153.74237172998693 43.578912113378465 104.01002524474858 H 0.0 **** 0.06
19163 H 153.7241445993064 44.56199879647454 105.49326750774951 H 0.0 **** 0.06
19164 H 153.39475077937044 45.32194020982013 103.91789483749561 H 0.0 **** 0.06
19165 H 155.03852540972605 44.76152614342479 104.30877762677225 H 0.0 **** 0.06
19166 C 147.32231515968314 1.9000141612019092 38.322936265993704 C 0.0 **** -0.24
19167 H 147.7287297742663 2.1975264475922813 39.28975371082937 H 0.0 **** 0.06
19168 H 146.25952186814825 1.6817264503770843 38.42729745231446 H 0.0 **** 0.06
19169 H 147.84380134663934 1.010002368563221 37.96989867042318 H 0.0 **** 0.06
19170 H 147.4596919273329 2.710171237870071 37.60733129209872 H 0.0 **** 0.06
19171 C 154.02774592639238 184.81511463205237 169.08533607182636 C 0.0 **** -0.24
19172 H 153.80844143604293 185.78331657471523 168.63448474530688 H 0.0 **** 0.06
19173 H 155.0753372730341 184.78383169182013 169.38466550471614 H 0.0 **** 0.06
19174 H 153.83200603449956 184.02542104133659 168.36033105295547 H 0.0 **** 0.06
19175 H 153.39412252388507 184.67064423234496 169.95980106504302 H 0.0 **** 0.06
19176 C 140.4497056549847 31.728028984849686 112.71188479637534 C 0.0 **** -0.24
19177 H 139.76405094807455 32.57504341886863 112.68859242451732 H 0.0 **** 0.06
19178 H 141.1554935032084 31.85446053000524 113.53367185782058 H 0.0 **** 0.06
19179 H 140.9952657911499 31.677114197568784 111.76927289246929 H 0.0 **** 0.06
19180 H 139.8845919451408 30.807461262430763 112.85465700613322 H 0.0 **** 0.06
19181 C 123.7854334086065 122.13266710962579 174.94579049507246 C 0.0 **** -0.24
19182 H 122.73793752569036 122.43220558798039 174.98115207633657 H 0.0 **** 0.06
19183 H 124.11670920046656 122.09265109811044 173.9082402911426 H 0.0 **** 0.06
19184 H 123.89626719349904 121.14866106007575 175.40164829760738 H 0.0 **** 0.06
19185 H 124.38910214690974 122.85606820050263 175.49305848949348 H 0.0 **** 0.06
19186 C 86.83140797789616 139.4202617033376 103.5701068446604 C 0.0 **** -0.24
19187 H 87.01310194705525 140.47337128030705 103.78211358143035 H 0.0 **** 0.06
19188 H 86.91662078616793 138.8445694953133 104.49225468818362 H 0.0 **** 0.06
19189 H 87.5671439592657 139.063066407166 102.84903648226064 H 0.0 **** 0.06
19190 H 85.83000318698004 139.300705128 103.15717946461264 H 0.0 **** 0.06
19191 C 83.08018564719838 115.91018616664371 94.92722092562097 C 0.0 **** -0.24
19192 H 83.66899345704077 115.01518820860286 95.12412024364225 H 0.0 **** 0.06
19193 H 82.89346445588694 116.43543936234715 95.86497765889028 H 0.0 **** 0.06
19194 H 82.13060984140363 115.6282314117559 94.4734912232688 H 0.0 **** 0.06
19195 H 83.62736900856211 116.56325047141905 94.2480392683563 H 0.0 **** 0.06
19196 C 174.77043029727383 32.040605645724554 82.18661519718138 C 0.0 **** -0.24
19197 H 174.4794408345852 32.357353985472855 81.18577257708404 H 0.0 **** 0.06
19198 H 175.69773188414848 32.538513033298955 82.47101171248795 H 0.0 **** 0.06
19199 H 174.9199453544958 30.961003713847163 82.19776318038174 H 0.0 **** 0.06
19200 H 173.9837370818965 32.305226539253 82.8941814250725 H 0.0 **** 0.06
19201 C 65.67770092831418 89.55903518262885 7.590278387774923 C 0.0 **** -0.24
19202 H 65.21058766109175 90.4965970747766 7.890770055921578 H 0.0 **** 0.06
19203 H 66.73338770311926 89.73086259633645 7.3761681833605195 H 0.0 **** 0.06
19204 H 65.18282696046616 89.17624365251659 6.697667181438476 H 0.0 **** 0.06
19205 H 65.584731087966 88.83240184035851 8.397190990937766 H 0.0 **** 0.06
19206 C 92.80777587887873 81.41168959869495 13.32728465040455 C 0.0 **** -0.24
19207 H 92.23879299063655 82.29629571640623 13.613305369946659 H 0.0 **** 0.06
19208 H 92.35550612196936 80.9581695351058 12.44551315312603 H 0.0 **** 0.06
19209 H 92.80227737733905 80.69525486253532 14.148121036842497 H 0.0 **** 0.06
19210 H 93.83568519520388 81.69799864023435 13.103057194877636 H 0.0 **** 0.06
19211 C 167.24941025675582 33.79625798972302 142.59683718547893 C 0.0 **** -0.24
19212 H 166.23508150563293 33.93818618929734 142.97012117937118 H 0.0 **** 0.06
19213 H 167.2105628254735 33.40932370257684 141.5778356474309 H 0.0 **** 0.06
19214 H 167.7750169108533 33.086862547349426 143.23603520968186 H 0.0 **** 0.06
19215 H 167.77616532777552 34.7512339327742 142.60327464676504 H 0.0 **** 0.06
19216 C 1.5048974407057898 137.37980839470674 166.48524044728828 C 0.0 **** -0.24
19217 H 0.6536119934653399 137.6834772803653 167.09538279539123 H 0.0 **** 0.06
19218 H 2.4042088953322107 137.88329694431468 166.84115275644467 H 0.0 **** 0.06
19219 H 1.3219106649411145 137.6527933037247 165.44646356225957 H 0.0 **** 0.06
19220 H 1.637527500250691 136.30060121583347 166.55926400503347 H 0.0 **** 0.06
19221 C 120.99194589945908 185.26601852963296 10.060201249091733 C 0.0 **** -0.24
19222 H 121.22863460461376 186.32666746875526 9.974751539380549 H 0.0 **** 0.06
19223 H 120.45465814048951 184.94109499257843 9.169595889925517 H 0.0 **** 0.06
19224 H 120.36926911330563 185.1032195181544 10.940901827381651 H 0.0 **** 0.06
19225 H 121.91461839258294 184.6941766484939 10.157667601447201 H 0.0 **** 0.06
19226 C 18.999888070710625 121.21888327735827 116.39625558822304 C 0.0 **** -0.24
19227 H 18.10421423714689 121.83599598288846 116.33014477848751 H 0.0 **** 0.06
19228 H 19.00134199406675 120.4933663957617 115.58219568392902 H 0.0 **** 0.06
19229 H 19.01112837495554 120.6937105375056 117.3511433320093 H 0.0 **** 0.06
19230 H 19.883535678046556 121.85209403208081 116.31968928860958 H 0.0 **** 0.06
19231 C 152.45604069109407 43.1200299635166 9.570136074278622 C 0.0 **** -0.24
19232 H 153.17676078651846 43.49984955982393 10.294698698279987 H 0.0 **** 0.06
19233 H 151.48607052758499 42.99830603212973 10.053458490741065 H 0.0 **** 0.06
19234 H 152.7958704027834 42.15545763201236 9.191220013432044 H 0.0 **** 0.06
19235 H 152.3653327573797 43.824228607430015 8.744132646948735 H 0.0 **** 0.06
19236 C 4.4410237322871 85.49383043457497 3.1965783466690567 C 0.0 **** -0.24
19237 H 5.443146425675934 85.62550360443028 3.6044798589579656 H 0.0 **** 0.06
19238 H 3.7863367724320227 85.08483525130055 3.9663856586613946 H 0.0 **** 0.06
19239 H 4.48091974219917 84.80590738819308 2.3514271301448915 H 0.0 **** 0.06
19240 H 4.0539635717421945 86.45635956490607 2.8632790061017417 H 0.0 **** 0.06
19241 C 77.55174743018812 65.5458697338647 29.646084915114372 C 0.0 **** -0.24
19242 H 77.40417010327876 64.63467973775361 29.06606500522379 H 0.0 **** 0.06
19243 H 77.06318117487719 66.38083679238045 29.142021988319257 H 0.0 **** 0.06
19244 H 78.61793297296424 65.74945707079216 29.737254584006436 H 0.0 **** 0.06
19245 H 77.11967070176834 65.41794364344666 30.638260284534596 H 0.0 **** 0.06
19246 C 157.80332489612664 60.29461315190852 121.33136741404974 C 0.0 **** -0.24
19247 H 158.53126586411508 60.26456603642541 122.14127262314304 H 0.0 **** 0.06
19248 H 157.9928218783619 59.471137328970315 120.64243066829039 H 0.0 **** 0.06
19249 H 157.89197557426422 61.24206633956959 120.79898043173188 H 0.0 **** 0.06
19250 H 156.7981533924532 60.201644681099935 121.74230228648298 H 0.0 **** 0.06
19251 C 25.64374290312935 107.0170190171035 104.29950535137829 C 0.0 **** -0.24
19252 H 25.464293894312334 105.94835435497974 104.17880624620489 H 0.0 **** 0.06
19253 H 26.501751244672448 107.16913276488843 104.95542111761426 H 0.0 **** 0.06
19254 H 24.763338711681627 107.48501525585017 104.73862528392073 H 0.0 **** 0.06
19255 H 25.8459106603176 107.46361343192335 103.32619503154763 H 0.0 **** 0.06
19256 C 97.3461832057536 10.808479376734908 151.81701223504845 C 0.0 **** -0.24
19257 H 96.58493395685569 11.562447285147698 151.61594919870728 H 0.0 **** 0.06
19258 H 98.02693231078764 11.175445126231807 152.58451997730089 H 0.0 **** 0.06
19259 H 97.90396853377005 10.603604878616693 150.90364850025 H 0.0 **** 0.06
19260 H 96.86673066932052 9.893213599931983 152.163110730075 H 0.0 **** 0.06
19261 C 109.57531887929831 134.73790242805705 80.57499517147905 C 0.0 **** -0.24
19262 H 109.97418485721049 133.7393204354163 80.40070156091228 H 0.0 **** 0.06
19263 H 109.01655592082669 135.06579484694186 79.69772160430908 H 0.0 **** 0.06
19264 H 110.39655135810067 135.43003366994492 80.76251033364431 H 0.0 **** 0.06
19265 H 108.9128319377056 134.7176455876699 81.44055399991319 H 0.0 **** 0.06
19266 C 35.87176839998688 48.02483247252235 13.928640649136383 C 0.0 **** -0.24
19267 H 35.512973392248114 48.67702213140308 14.725013777305833 H 0.0 **** 0.06
19268 H 36.28157686408372 48.63056499814115 13.120037218508635 H 0.0 **** 0.06
19269 H 35.04373454119252 47.42489878377273 13.550548238202445 H 0.0 **** 0.06
19270 H 36.64723753106432 47.366884952758824 14.319732746883055 H 0.0 **** 0.06
19271 C 19.799443022806564 97.86365437602866 123.64135473861229 C 0.0 **** -0.24
19272 H 19.24906042627429 97.43318674624471 124.47719679878493 H 0.0 **** 0.06
19273 H 19.41427740240909 97.4579969694994 122.70548461249491 H 0.0 **** 0.06
19274 H 20.856738061676992 97.61583160791214 123.73625702722258 H 0.0 **** 0.06
19275 H 19.678568873283737 98.9462175294472 123.64591371918219 H 0.0 **** 0.06
19276 C 131.28239392199453 171.71058227141444 10.20787451935189 C 0.0 **** -0.24
19277 H 131.26057043557773 171.6187417383582 9.121801122129398 H 0.0 **** 0.06
19278 H 132.18823418676305 171.24226180625024 10.593769241708515 H 0.0 **** 0.06
19279 H 130.40821874837764 171.2162188939545 10.631308073086359 H 0.0 **** 0.06
19280 H 131.2722848386125 172.76496548932425 10.483666459298092 H 0.0 **** 0.06
19281 C 111.6607674529917 177.50911761610567 124.57153622830039 C 0.0 **** -0.24
19282 H 111.22073134070712 176.80625675360125 123.86319081601492 H 0.0 **** 0.06
19283 H 111.0892808674406 177.4922164469936 125.50068414335526 H 0.0 **** 0.06
19284 H 111.63788140570813 178.51325569667642 124.14876525765051 H 0.0 **** 0.06
19285 H 112.69234452969789 177.22274608570677 124.77350260210936 H 0.0 **** 0.06
19286 C 168.48925805207006 51.13255889719804 45.46380296811225 C 0.0 **** -0.24
19287 H 167.70772648324657 51.891215841112356 45.45026144366972 H 0.0 **** 0.06
19288 H 169.41938979894599 51.56172674939219 45.08959409265964 H 0.0 **** 0.06
19289 H 168.1937094975325 50.295719279399975 44.82953968317017 H 0.0 **** 0.06
19290 H 168.6364419161282 50.78019004633086 46.48480172930533 H 0.0 **** 0.06
19291 C 95.81819579311889 147.50636072919937 59.483892061541155 C 0.0 **** -0.24
19292 H 94.8667014054987 147.7297022514088 59.00102524247049 H 0.0 **** 0.06
19293 H 96.25769464281854 146.61866929646192 59.027386770855685 H 0.0 **** 0.06
19294 H 95.65343635973653 147.32613733916034 60.54548105207759 H 0.0 **** 0.06
19295 H 96.49488582376438 148.351312606592 59.359472322192175 H 0.0 **** 0.06
19296 C 106.98575834358364 114.10697443005726 116.66592160251072 C 0.0 **** -0.24
19297 H 107.64758309475629 113.30984600237512 116.32946269660145 H 0.0 **** 0.06
19298 H 107.54561648328807 114.80528970628647 117.28772944455481 H 0.0 **** 0.06
19299 H 106.16774344744074 113.67938155432346 117.24624422119193 H 0.0 **** 0.06
19300 H 106.58116750342246 114.63342731650242 115.8017150509959 H 0.0 **** 0.06
19301 C 78.21177695926589 174.7306678732701 53.429438825457396 C 0.0 **** -0.24
19302 H 78.18797439513955 175.80825570625848 53.26982917039834 H 0.0 **** 0.06
19303 H 78.40935004956617 174.2278611478674 52.48225687019362 H 0.0 **** 0.06
19304 H 77.25043254393891 174.4007832015121 53.822137641174606 H 0.0 **** 0.06
19305 H 79.00014185467103 174.48636131043472 54.14210809166269 H 0.0 **** 0.06
19306 C 45.2150442300391 117.30880911501912 118.19249402113643 C 0.0 **** -0.24
19307 H 44.731015003403456 117.53202696453643 117.24251463988087 H 0.0 **** 0.06
19308 H 44.6600030285486 116.5263116703844 118.70859318131188 H 0.0 **** 0.06
19309 H 45.23666084395052 118.20769475099185 118.80955376413515 H 0.0 **** 0.06
19310 H 46.23530348435986 116.970242524407 118.009092527513 H 0.0 **** 0.06
19311 C 149.4736631764253 52.68570106451841 40.224553370530515 C 0.0 **** -0.24
19312 H 148.9537451816263 52.69613659923699 39.266823904121566 H 0.0 **** 0.06
19313 H 150.52899411107316 52.46653559970248 40.06206188745827 H 0.0 **** 0.06
19314 H 149.0374066803763 51.91892166220313 40.86526625310813 H 0.0 **** 0.06
19315 H 149.3722170207895 53.65922848710257 40.703150668369005 H 0.0 **** 0.06
19316 C 147.66503996564882 141.8915745132873 48.4297664503888 C 0.0 **** -0.24
19317 H 147.03555543408513 141.05289764065816 48.13521144906241 H 0.0 **** 0.06
19318 H 148.67613322020514 141.73694092696087 48.052087662814245 H 0.0 **** 0.06
19319 H 147.68963156623101 141.96385719643547 49.51699955568813 H 0.0 **** 0.06
19320 H 147.25932458131544 142.81351645664614 48.01380319361368 H 0.0 **** 0.06
19321 C 91.57719154961624 130.5640464911168 90.6099512767244 C 0.0 **** -0.24
19322 H 91.28382894604137 131.3598534518411 89.92441859512344 H 0.0 **** 0.06
19323 H 92.61826367761005 130.29618689066808 90.42890313859833 H 0.0 **** 0.06
19324 H 90.94316550422921 129.6926395318082 90.44712547389885 H 0.0 **** 0.06
19325 H 91.46403605992059 130.9088778169617 91.63739837354213 H 0.0 **** 0.06
19326 C 57.191728999587696 68.69155380816727 2.463403255849471 C 0.0 **** -0.24
19327 H 56.5096542220694 68.33024724324588 1.6935500648765753 H 0.0 **** 0.06
19328 H 57.415769177282215 67.88198254089099 3.158673525171821 H 0.0 **** 0.06
19329 H 56.72628564800527 69.51593128024123 3.0028489082153556 H 0.0 **** 0.06
19330 H 58.114418583864605 69.03621614171033 1.998555835837493 H 0.0 **** 0.06
19331 C 2.7677730304342987 52.79391171947299 37.69207825753995 C 0.0 **** -0.24
19332 H 3.205774335512764 51.80913216412628 37.52929788981476 H 0.0 **** 0.06
19333 H 1.767266797827702 52.822905712445305 37.259999559771245 H 0.0 **** 0.06
19334 H 3.3922716571841747 53.55111089695333 37.21724644348626 H 0.0 **** 0.06
19335 H 2.7081758892922423 52.99122625484131 38.762568578063906 H 0.0 **** 0.06
19336 C 86.01412501269783 138.84682063796134 74.56450637955598 C 0.0 **** -0.24
19337 H 85.64206417234539 138.08088396676578 73.8834409416679 H 0.0 **** 0.06
19338 H 85.50738720093892 138.75644127036458 75.5255520260244 H 0.0 **** 0.06
19339 H 85.82113790506452 139.83277712399064 74.14310856488687 H 0.0 **** 0.06
19340 H 87.08762889859668 138.71570955670575 74.70498301466161 H 0.0 **** 0.06
19341 C 77.53092626199361 6.418421452362949 50.527996968982706 C 0.0 **** -0.24
19342 H 78.09491265954819 5.515132360967229 50.76303643899871 H 0.0 **** 0.06
19343 H 77.99415025204712 6.925691729585182 49.681640798695696 H 0.0 **** 0.06
19344 H 77.52837440280706 7.080400327217106 51.39381208461714 H 0.0 **** 0.06
19345 H 76.50509612035665 6.149378097969333 50.27384625207762 H 0.0 **** 0.06
19346 C 146.87442131316533 161.90924592936224 12.7777046972274 C 0.0 **** -0.24
19347 H 146.60478493193787 161.58225706471745 11.772625143281743 H 0.0 **** 0.06
19348 H 147.04658338634988 161.036654976702 13.409336441483696 H 0.0 **** 0.06
19349 H 146.0620052673376 162.50487670070424 13.195022965339511 H 0.0 **** 0.06
19350 H 147.78194448908954 162.51131422157601 12.732907156793928 H 0.0 **** 0.06
19351 C 82.75033728395522 23.09668896107894 153.00699873565014 C 0.0 **** -0.24
19352 H 83.10068156488046 24.114387045912736 153.183330501912 H 0.0 **** 0.06
19353 H 82.86943325310904 22.849613213414045 151.95163665989554 H 0.0 **** 0.06
19354 H 81.6988930930296 23.02260526038333 153.28238038199746 H 0.0 **** 0.06
19355 H 83.33426442764312 22.402543813022987 153.61140420205615 H 0.0 **** 0.06
19356 C 139.05705913014577 107.67188499315382 134.8763293281583 C 0.0 **** -0.24
19357 H 138.2697510086855 107.70816353343487 135.629392510686 H 0.0 **** 0.06
19358 H 139.65981648976373 108.5783814888557 134.93688547719148 H 0.0 **** 0.06
19359 H 138.60803311606446 107.59877007047173 133.8859979691191 H 0.0 **** 0.06
19360 H 139.6896678916143 106.8022075642212 135.05329170119506 H 0.0 **** 0.06
19361 C 172.1744385395994 131.3073842224906 126.38421178198736 C 0.0 **** -0.24
19362 H 171.4031086022377 130.53750120127273 126.3820637544898 H 0.0 **** 0.06
19363 H 172.1893396797409 131.80739132330012 125.41498463825006 H 0.0 **** 0.06
19364 H 173.14500893614922 130.84855957385167 126.57139991495886 H 0.0 **** 0.06
19365 H 171.95846762423153 132.0352557522544 127.16524182124702 H 0.0 **** 0.06
19366 C 112.55228839464128 155.21541957158905 63.535874499139794 C 0.0 **** -0.24
19367 H 113.12342018995746 155.1831021728069 62.60729200096266 H 0.0 **** 0.06
19368 H 113.1481196746396 155.69613526503957 64.31224547339217 H 0.0 **** 0.06
19369 H 112.30328245196735 154.20019482326722 63.84365542306767 H 0.0 **** 0.06
19370 H 111.63559445616629 155.78303188697083 63.37687186336652 H 0.0 **** 0.06
19371 C 74.96441412906096 100.69696322929155 89.61357434857742 C 0.0 **** -0.24
19372 H 74.27307140090049 99.88217936289692 89.826916392559 H 0.0 **** 0.06
19373 H 75.9566937237075 100.43736652809349 89.98259348633674 H 0.0 **** 0.06
19374 H 74.61869236866002 101.60508544585389 90.10658230666756 H 0.0 **** 0.06
19375 H 75.00746636321173 100.86250763794033 88.53662776628842 H 0.0 **** 0.06
19376 C 155.04595433653816 149.6968401588881 8.199457807679835 C 0.0 **** -0.24
19377 H 155.2995629477328 150.22420363798193 7.279768294674682 H 0.0 **** 0.06
19378 H 154.0088897163019 149.36643991344914 8.153197862888845 H 0.0 **** 0.06
19379 H 155.17734977962897 150.36648010391096 9.0489841032566 H 0.0 **** 0.06
19380 H 155.69870460996776 148.83140495936243 8.313024332812518 H 0.0 **** 0.06
19381 C 19.53818821882578 52.79911607757077 170.90104765301226 C 0.0 **** -0.24
19382 H 20.45445078393152 52.24003472758926 171.09409259747076 H 0.0 **** 0.06
19383 H 19.463831701303633 53.62864512014522 171.60562205486477 H 0.0 **** 0.06
19384 H 18.67948385323217 52.13975246732622 171.02392069195452 H 0.0 **** 0.06
19385 H 19.5572240121179 53.18573334323463 169.8824814685307 H 0.0 **** 0.06
19386 C 81.31583925425538 124.83473840967487 31.093124428983884 C 0.0 **** -0.24
19387 H 81.8379481646213 124.6127498759267 30.162371109511597 H 0.0 **** 0.06
19388 H 81.47221144940943 124.01951060510102 31.79993610088536 H 0.0 **** 0.06
19389 H 80.25014582745412 124.94581916933403 30.895139765924924 H 0.0 **** 0.06
19390 H 81.70519840557435 125.76148908934935 31.51493718297408 H 0.0 **** 0.06
19391 C 128.50076460456052 174.4149151575159 69.89771293661173 C 0.0 **** -0.24
19392 H 128.58034706251567 175.36161824895612 70.43238036674892 H 0.0 **** 0.06
19393 H 127.55933334977242 173.9296499834619 70.156624666911 H 0.0 **** 0.06
19394 H 129.33304796214298 173.76965766290164 70.17917082998491 H 0.0 **** 0.06
19395 H 128.5317976883606 174.60121309756556 68.82460046945427 H 0.0 **** 0.06
19396 C 105.52238967348273 174.52389585168945 63.06848415802665 C 0.0 **** -0.24
19397 H 105.95417886161391 174.14724774355284 63.99627275866328 H 0.0 **** 0.06
19398 H 105.41294678748523 175.6062686732095 63.133057238252604 H 0.0 **** 0.06
19399 H 104.54411541154923 174.06850827209706 62.91266375417274 H 0.0 **** 0.06
19400 H 106.17709361684882 174.27291836178114 62.23511967569078 H 0.0 **** 0.06
19401 C 91.57192412052304 70.46891012094446 133.40324129732238 C 0.0 **** -0.24
19402 H 91.58087621793116 69.4038121042243 133.63102495755896 H 0.0 **** 0.06
19403 H 91.76509067414862 71.03679209336602 134.31297262809255 H 0.0 **** 0.06
19404 H 90.59665953157058 70.74694449075112 133.00125338479307 H 0.0 **** 0.06
19405 H 92.34415802102133 70.6898192965351 132.66566870535956 H 0.0 **** 0.06
19406 C 61.82487435160044 143.00928726681093 8.110171379359883 C 0.0 **** -0.24
19407 H 61.033589091618865 142.3470663537425 7.760373671688228 H 0.0 **** 0.06
19408 H 62.73503241881144 142.4323162501002 8.27401002678451 H 0.0 **** 0.06
19409 H 61.519417013123416 143.47897170620053 9.044279330582604 H 0.0 **** 0.06
19410 H 62.011990995254735 143.77877852927242 7.360712281350359 H 0.0 **** 0.06
19411 C 53.684212059422094 101.4501903581458 169.37191900765345 C 0.0 **** -0.24
19412 H 53.48500483686934 102.44957349803012 168.98541651244295 H 0.0 **** 0.06
19413 H 53.777033497600485 100.75116733861525 168.54070642141681 H 0.0 **** 0.06
19414 H 52.86099931136687 101.13952929070048 170.01669174342902 H 0.0 **** 0.06
19415 H 54.61022520586022 101.46045264238309 169.9452406075548 H 0.0 **** 0.06
19416 C 34.15125027936985 30.049567685174026 137.4908104135887 C 0.0 **** -0.24
19417 H 33.32708483290297 29.449995549019263 137.87790206335217 H 0.0 **** 0.06
19418 H 34.5423623407781 30.685093922130847 138.28650078510793 H 0.0 **** 0.06
19419 H 33.79291448024976 30.67189211828142 136.6712128893751 H 0.0 **** 0.06
19420 H 34.94078403832563 29.39127020526776 137.12998330081695 H 0.0 **** 0.06
19421 C 52.53800766244666 38.69291364645969 157.42413265840702 C 0.0 **** -0.24
19422 H 52.89759777656019 37.80946593183944 156.8957365281532 H 0.0 **** 0.06
19423 H 53.30809434802427 39.042009786521646 158.11258800478112 H 0.0 **** 0.06
19424 H 51.6372174687736 38.4397327161181 157.98410393549844 H 0.0 **** 0.06
19425 H 52.310140365549955 39.47948995848009 156.70431839082346 H 0.0 **** 0.06
19426 C 54.475330028168386 97.06503472396956 106.01129499560545 C 0.0 **** -0.24
19427 H 54.383314402056854 97.9944847372979 105.44846448318248 H 0.0 **** 0.06
19428 H 54.463640773602364 97.28447986672431 107.07923580430344 H 0.0 **** 0.06
19429 H 55.41212073483679 96.57331232191815 105.75035324246181 H 0.0 **** 0.06
19430 H 53.64064144099129 96.40840664053637 105.76566542061454 H 0.0 **** 0.06
19431 C 181.58405022215348 55.628026035470924 151.42780169915414 C 0.0 **** -0.24
19432 H 180.98458370844662 55.17292826753669 152.216829776572 H 0.0 **** 0.06
19433 H 180.9311392291603 56.16937845844626 150.74300380373865 H 0.0 **** 0.06
19434 H 182.11790278146287 54.85001709480551 150.88272199925552 H 0.0 **** 0.06
19435 H 182.30127199462032 56.31981298475826 151.86919959432294 H 0.0 **** 0.06
19436 C 109.19992362639711 4.735744472807141 80.20684686220315 C 0.0 **** -0.24
19437 H 109.84702545011918 5.271317230774372 79.51238346658097 H 0.0 **** 0.06
19438 H 108.15786605398311 4.892005339456887 79.92672914231679 H 0.0 **** 0.06
19439 H 109.36429225072841 5.109453891146217 81.21746973327325 H 0.0 **** 0.06
19440 H 109.430263323309 3.6715937508985235 80.17078863884055 H 0.0 **** 0.06
19441 C 15.743012999491611 146.1916195112106 184.45212714361392 C 0.0 **** -0.24
19442 H 15.22885269420459 145.94051348864218 183.52425413744456 H 0.0 **** 0.06
19443 H 16.50031684617619 145.43630048428997 184.66344308867474 H 0.0 **** 0.06
19444 H 15.02243874397658 146.22323182323777 185.2697901453902 H 0.0 **** 0.06
19445 H 16.2204437136092 147.1664322486725 184.35102120294624 H 0.0 **** 0.06
19446 C 60.08770877560147 159.79510387875376 121.70387966441939 C 0.0 **** -0.24
19447 H 61.09028231659096 159.64629270100897 122.10490446656564 H 0.0 **** 0.06
19448 H 59.350000006377115 159.54268574058847 122.4657623494711 H 0.0 **** 0.06
19449 H 59.945968186228754 159.15446897828213 120.83413035295058 H 0.0 **** 0.06
19450 H 59.965744422469754 160.83774550302326 121.410496805597 H 0.0 **** 0.06
19451 C 167.8476215763824 129.33676269788089 141.7870304719354 C 0.0 **** -0.24
19452 H 167.01588652230419 130.03594289078944 141.69523044664805 H 0.0 **** 0.06
19453 H 168.40750065835869 129.55591011173686 142.6962269239952 H 0.0 **** 0.06
19454 H 168.50364964054202 129.4375656397441 140.92212508904026 H 0.0 **** 0.06
19455 H 167.46145766419374 128.31890013496098 141.83388749777026 H 0.0 **** 0.06
19456 C 177.26280496385294 46.11394404411017 21.20016763200576 C 0.0 **** -0.24
19457 H 176.2365823513935 45.90462508582789 20.89856676684599 H 0.0 **** 0.06
19458 H 177.5887364233651 47.05282631656189 20.751391350504832 H 0.0 **** 0.06
19459 H 177.91322954319614 45.30556504147452 20.865345842000494 H 0.0 **** 0.06
19460 H 177.31214940440987 46.194863693124304 22.28591506723052 H 0.0 **** 0.06
19461 C 172.18340434770315 91.11824965339048 31.22183803023529 C 0.0 **** -0.24
19462 H 172.034911076662 90.17910496368103 30.687863883017997 H 0.0 **** 0.06
19463 H 172.6836890814413 90.9204823963438 32.16977139144552 H 0.0 **** 0.06
19464 H 171.21702086660056 91.58515995833096 31.410273909832625 H 0.0 **** 0.06
19465 H 172.79897620573684 91.78524512334161 30.617709972040643 H 0.0 **** 0.06
19466 C 67.50459335806681 121.32192025264987 31.53043543689006 C 0.0 **** -0.24
19467 H 67.817338612931 120.34336403483178 31.89338374301076 H 0.0 **** 0.06
19468 H 67.73110698570048 122.07782575546821 32.282826842767065 H 0.0 **** 0.06
19469 H 66.43238538047206 121.31212008432675 31.336496390202086 H 0.0 **** 0.06
19470 H 68.03846563615724 121.55544140643866 30.608986774496543 H 0.0 **** 0.06
19471 C 143.3574982785985 168.88435626094676 139.53263979266484 C 0.0 **** -0.24
19472 H 142.42377258402138 168.65987104585363 139.0168684455041 H 0.0 **** 0.06
19473 H 143.33045112873273 168.45787255560748 140.53559915125948 H 0.0 **** 0.06
19474 H 143.4828977074564 169.9652533993418 139.60063050611421 H 0.0 **** 0.06
19475 H 144.19133160339214 168.45624121592 138.976877396171 H 0.0 **** 0.06
19476 C 164.34958775732736 84.27915002459049 174.91259624885055 C 0.0 **** -0.24
19477 H 164.85241682108284 84.21236771567976 175.8777612281824 H 0.0 **** 0.06
19478 H 163.5159741265076 83.57678168486456 174.8880725626824 H 0.0 **** 0.06
19479 H 165.0553955765563 84.03581712968746 174.11863480198855 H 0.0 **** 0.06
19480 H 163.97501854924036 85.29256026253826 174.7679001376685 H 0.0 **** 0.06
19481 C 102.77820670652716 23.591887644032724 105.82775079544273 C 0.0 **** -0.24
19482 H 102.08671848902048 24.40302933399886 106.05638275717315 H 0.0 **** 0.06
19483 H 102.3557453529308 22.96475886468312 105.04235517881726 H 0.0 **** 0.06
19484 H 102.94375669002864 22.992282992232504 106.72266242250082 H 0.0 **** 0.06
19485 H 103.72672362492398 24.008883787951504 105.48972087357423 H 0.0 **** 0.06
19486 C 168.6373094766545 145.11084749905913 9.778798653086461 C 0.0 **** -0.24
19487 H 168.645945050243 144.44289428059767 8.917976216684487 H 0.0 **** 0.06
19488 H 169.44697129929477 145.8353542326629 9.683524707712962 H 0.0 **** 0.06
19489 H 168.77350781502173 144.5307470534773 10.691353770323957 H 0.0 **** 0.06
19490 H 167.68361484822748 145.63639537032495 9.821744444458865 H 0.0 **** 0.06
19491 C 47.17476850482069 123.17084033731847 91.58077957026465 C 0.0 **** -0.24
19492 H 47.78050544096635 123.16132010107914 90.67442947134397 H 0.0 **** 0.06
19493 H 46.27372045102618 123.75961177874903 91.40927460224201 H 0.0 **** 0.06
19494 H 47.7491629571372 123.61259075093612 92.39599119095429 H 0.0 **** 0.06
19495 H 46.89782387742187 122.14919348523541 91.84332438176658 H 0.0 **** 0.06
19496 C 0.2839101067133498 122.5312491361007 108.53862245070968 C 0.0 **** -0.24
19497 H -0.38798644595345877 123.10482084536225 107.8994519715082 H 0.0 **** 0.06
19498 H 1.1519319937131982 123.14053627234092 108.79139025808297 H 0.0 **** 0.06
19499 H 0.6104842546992586 121.63530390305992 108.00970860744275 H 0.0 **** 0.06
19500 H -0.23889966849431232 122.24546257394196 109.45082161677732 H 0.0 **** 0.06
19501 C 79.18841591183275 148.69919629714713 151.03647613143366 C 0.0 **** -0.24
19502 H 79.49954031681452 148.57354927362195 152.07372865740155 H 0.0 **** 0.06
19503 H 80.05371732378603 148.96458552897724 150.42803433726488 H 0.0 **** 0.06
19504 H 78.44361139873241 149.4922030872092 150.97566649924448 H 0.0 **** 0.06
19505 H 78.75863601230816 147.76650836428288 150.6708426727606 H 0.0 **** 0.06
19506 C 38.10872221822524 98.98260117012255 116.37717203648607 C 0.0 **** -0.24
19507 H 39.06005679839643 99.51385808641517 116.36210705180422 H 0.0 **** 0.06
19508 H 37.67659253254271 98.98272954849834 115.37604751708376 H 0.0 **** 0.06
19509 H 37.42586424949707 99.47897969372117 117.06651354368547 H 0.0 **** 0.06
19510 H 38.27044271300326 97.95594978825399 116.70385346368515 H 0.0 **** 0.06
19511 C 154.57706683871328 127.8553358089166 119.55469076548555 C 0.0 **** -0.24
19512 H 154.0061414191114 126.93667756002083 119.6916490206694 H 0.0 **** 0.06
19513 H 154.53727487784514 128.1556359889019 118.50794258720036 H 0.0 **** 0.06
19514 H 155.61386199486387 127.68397139010409 119.84476905164645 H 0.0 **** 0.06
19515 H 154.15100512716498 128.64217638130305 120.17656911127368 H 0.0 **** 0.06
19516 C 89.33029570794452 153.3604826091267 94.63506589655077 C 0.0 **** -0.24
19517 H 90.12506641165828 152.87029066095016 94.07359842353952 H 0.0 **** 0.06
19518 H 89.7539061096573 154.16407073489972 95.23838400654455 H 0.0 **** 0.06
19519 H 88.8448714398923 152.63395958119216 95.28714023833146 H 0.0 **** 0.06
19520 H 88.59755619661792 153.77339369273994 93.94209288355592 H 0.0 **** 0.06
19521 C 2.0230635822388763 154.80156607335772 141.59367305630843 C 0.0 **** -0.24
19522 H 1.6683457476138415 154.20878903523936 140.75092992380814 H 0.0 **** 0.06
19523 H 1.6549421186548443 155.82333273197708 141.50004693196303 H 0.0 **** 0.06
19524 H 3.1137172683299923 154.80707548430757 141.60027484658588 H 0.0 **** 0.06
19525 H 1.6572520941782614 154.36608447415688 142.5232886133776 H 0.0 **** 0.06
19526 C 25.750618670985034 35.44428656752328 38.183814189727514 C 0.0 **** -0.24
19527 H 24.90431795471349 35.24803439552578 38.843108189497116 H 0.0 **** 0.06
19528 H 26.591144985555275 35.81278445384615 38.77188832248578 H 0.0 **** 0.06
19529 H 25.46775078612609 36.192333457924036 37.44346429750098 H 0.0 **** 0.06
19530 H 26.03765752409595 34.52244076951101 37.6769252373378 H 0.0 **** 0.06
19531 C 20.199179604898205 166.90335280323052 53.192755764623186 C 0.0 **** -0.24
19532 H 20.706702743176024 166.49633964040663 54.067299023539874 H 0.0 **** 0.06
19533 H 20.35309530661857 166.2385558576924 52.34229508851169 H 0.0 **** 0.06
19534 H 20.605007446515636 167.88836238063612 52.96227093290126 H 0.0 **** 0.06
19535 H 19.131946454009565 166.98801976610815 53.39982650925286 H 0.0 **** 0.06
19536 C 39.006344078660106 138.4090980779502 23.492197488833455 C 0.0 **** -0.24
19537 H 38.80544179219294 137.5688543385363 22.82746513945588 H 0.0 **** 0.06
19538 H 39.95380643990245 138.8729199732125 23.214712842371696 H 0.0 **** 0.06
19539 H 39.063964863240756 138.05255990074068 24.521317876276143 H 0.0 **** 0.06
19540 H 38.20326936818361 139.14093677654478 23.406014613749832 H 0.0 **** 0.06
19541 C 10.677309276735485 173.3552506608918 130.90918807933008 C 0.0 **** -0.24
19542 H 9.843292346958492 172.73578143854826 131.23813183213213 H 0.0 **** 0.06
19543 H 11.237568552635423 172.82991828724192 130.13512165617863 H 0.0 **** 0.06
19544 H 11.33231758229283 173.56199075526374 131.75548886143338 H 0.0 **** 0.06
19545 H 10.295421729790547 174.29387876557624 130.50688152846777 H 0.0 **** 0.06
19546 C 124.36580665479147 57.26891703619765 23.18910410008357 C 0.0 **** -0.24
19547 H 123.55845410951775 57.95706768008438 23.440581603537794 H 0.0 **** 0.06
19548 H 124.45682563071341 56.515000660127384 23.97195213279133 H 0.0 **** 0.06
19549 H 125.30148029967728 57.822202043195546 23.107630803164284 H 0.0 **** 0.06
19550 H 124.146698417077 56.78237275980291 22.23925117350484 H 0.0 **** 0.06
19551 C 64.69819780774809 119.48473933923908 62.647404396814295 C 0.0 **** -0.24
19552 H 63.993508590963216 118.88364466095364 63.22156608605597 H 0.0 **** 0.06
19553 H 65.00514615968794 120.34730319400744 63.23845909478467 H 0.0 **** 0.06
19554 H 64.22024669091432 119.82554031588363 61.72809170387177 H 0.0 **** 0.06
19555 H 65.57244177102852 118.8834916358931 62.400574453105776 H 0.0 **** 0.06
19556 C 131.3819278503342 7.206550073884102 85.15533736380068 C 0.0 **** -0.24
19557 H 132.26635871255098 6.704516983058966 85.54756585435958 H 0.0 **** 0.06
19558 H 131.2118476168335 6.89023296767013 84.12613059673355 H 0.0 **** 0.06
19559 H 131.53383707961007 8.285218247799776 85.1845247554643 H 0.0 **** 0.06
19560 H 130.51677757019849 6.9447190333675906 85.76434463632064 H 0.0 **** 0.06
19561 C 162.87564984555965 134.77025281455798 26.73492558262835 C 0.0 **** -0.24
19562 H 163.42917114020634 135.18115133970826 25.889925008675974 H 0.0 **** 0.06
19563 H 162.0096917485105 135.39914239358916 26.941840630819712 H 0.0 **** 0.06
19564 H 163.52165550337608 134.74007914378973 27.612048487323463 H 0.0 **** 0.06
19565 H 162.54228364791354 133.76052470404255 26.493901722834707 H 0.0 **** 0.06
19566 C 33.33449403724228 60.408751855660725 61.117415686583044 C 0.0 **** -0.24
19567 H 32.95298423723011 59.78394218314604 60.309749596675545 H 0.0 **** 0.06
19568 H 32.498159048513685 60.83652136801929 61.67040067502478 H 0.0 **** 0.06
19569 H 33.942433966888075 61.21005646601057 60.69986176740649 H 0.0 **** 0.06
19570 H 33.94266171063805 59.80234914597011 61.78901021531344 H 0.0 **** 0.06
19571 C 171.01154986440525 163.47049719964548 111.47392049794375 C 0.0 **** -0.24
19572 H 171.02295384237868 162.43665337648105 111.12821069028162 H 0.0 **** 0.06
19573 H 170.95239931521635 164.1393134554111 110.61402198963005 H 0.0 **** 0.06
19574 H 171.92501336975803 163.6764894208825 112.03251069783481 H 0.0 **** 0.06
19575 H 170.14749570132503 163.62865905036628 112.118205032131 H 0.0 **** 0.06
19576 C 98.71948097872166 173.0643343955217 75.63591810520322 C 0.0 **** -0.24
19577 H 98.31857769525027 173.1203478490895 76.64822903900728 H 0.0 **** 0.06
19578 H 99.54905075430884 173.763383640227 75.53598075971784 H 0.0 **** 0.06
19579 H 97.93747507943738 173.3214184490106 74.92105802120102 H 0.0 **** 0.06
19580 H 99.07099355922998 172.05110668428864 75.44148592803343 H 0.0 **** 0.06
19581 C 76.12207279356862 103.87913121810703 163.09377792439813 C 0.0 **** -0.24
19582 H 76.23535648765045 104.45684613966398 162.1769722672247 H 0.0 **** 0.06
19583 H 76.01944390038622 104.55736086337834 163.9411658131178 H 0.0 **** 0.06
19584 H 77.0005114536514 103.2490770413728 163.2373872776991 H 0.0 **** 0.06
19585 H 75.23289053963143 103.25137029667741 163.02080836733643 H 0.0 **** 0.06
19586 C 24.3596972962645 0.09680612457879079 66.87478050374183 C 0.0 **** -0.24
19587 H 23.833031112538933 1.044116845228416 66.98830354905616 H 0.0 **** 0.06
19588 H 24.257801338142343 -0.2557598299769097 65.8485267246019 H 0.0 **** 0.06
19589 H 23.9333016644826 -0.6388723594371868 67.55647639470773 H 0.0 **** 0.06
19590 H 25.415688226559425 0.23869275922882593 67.10755450173824 H 0.0 **** 0.06
19591 C 91.39546747044 85.44234172836043 147.77060166692516 C 0.0 **** -0.24
19592 H 91.08163385128552 86.48382014618862 147.70235563337573 H 0.0 **** 0.06
19593 H 91.19906675695188 84.9401341305578 146.8229653079077 H 0.0 **** 0.06
19594 H 90.83891194496505 84.94739106583191 148.56626940217163 H 0.0 **** 0.06
19595 H 92.4616281873445 85.39868524009013 147.99189510778325 H 0.0 **** 0.06
19596 C 178.75634801507388 166.0307901510738 181.87469508066994 C 0.0 **** -0.24
19597 H 177.99222753836918 165.28428302956067 182.09240679128123 H 0.0 **** 0.06
19598 H 179.01476456570288 166.56350762284498 182.7893908352421 H 0.0 **** 0.06
19599 H 178.37362248345357 166.7374451633431 181.13732457663488 H 0.0 **** 0.06
19600 H 179.64345014688456 165.5368823918006 181.47819123895601 H 0.0 **** 0.06
19601 C 85.34722386649936 158.46202007858895 21.861658214679665 C 0.0 **** -0.24
19602 H 84.40161122945058 158.31157099723993 21.340706988147673 H 0.0 **** 0.06
19603 H 85.1500653669048 158.75469344540954 22.892635505086616 H 0.0 **** 0.06
19604 H 85.91507815742405 159.24779774702998 21.362515603126155 H 0.0 **** 0.06
19605 H 85.92052240365287 157.53503358847482 21.848689071014576 H 0.0 **** 0.06
19606 C 28.681230818694118 162.3039638267763 39.14864993728155 C 0.0 **** -0.24
19607 H 28.01301458830868 162.75834115139338 38.417500386276316 H 0.0 **** 0.06
19608 H 28.432732760193034 162.66957315976637 40.145215993910256 H 0.0 **** 0.06
19609 H 29.712136075524683 162.56843177722487 38.91051037651118 H 0.0 **** 0.06
19610 H 28.5690269306738 161.21997402994796 39.12001814476571 H 0.0 **** 0.06
19611 C 123.59712516203662 184.90494276340655 130.6742074185517 C 0.0 **** -0.24
19612 H 124.66498116518834 185.1020136487381 130.5811430386865 H 0.0 **** 0.06
19613 H 123.12677602670168 184.98326908407364 129.69375137398498 H 0.0 **** 0.06
19614 H 123.15177225589532 185.63496825288587 131.35026358671945 H 0.0 **** 0.06
19615 H 123.44557958928702 183.9016472946251 131.0713478028174 H 0.0 **** 0.06
19616 C 87.66198964300888 1.4429666702496604 5.94989592854381 C 0.0 **** -0.24
19617 H 86.7006047562508 1.1174541841539494 6.347004326203603 H 0.0 **** 0.06
19618 H 88.26675007684743 0.570559709698756 5.700317681924275 H 0.0 **** 0.06
19619 H 88.18057557053199 2.0422550464492772 6.698441483919169 H 0.0 **** 0.06
19620 H 87.50086437582878 2.042103098626434 5.0536071605801 H 0.0 **** 0.06
19621 C 148.94306950353365 64.43713770278003 40.965852107611056 C 0.0 **** -0.24
19622 H 148.42844945926663 63.84156268195795 40.21254477260334 H 0.0 **** 0.06
19623 H 148.59390288856522 64.150388246636 41.95784796949525 H 0.0 **** 0.06
19624 H 148.73390200972716 65.49436595844588 40.79839831306833 H 0.0 **** 0.06
19625 H 150.0170909966838 64.26351905079588 40.89415987274876 H 0.0 **** 0.06
19626 C 114.2519755270352 10.455671379480123 2.749176565302264 C 0.0 **** -0.24
19627 H 115.17838246165456 10.405975188999605 2.1763913872664773 H 0.0 **** 0.06
19628 H 114.48504699729921 10.523075310234987 3.8114353578115754 H 0.0 **** 0.06
19629 H 113.66170119213098 9.559392049813198 2.5622918401245727 H 0.0 **** 0.06
19630 H 113.68452343418727 11.335317384007425 2.4452548757437285 H 0.0 **** 0.06
19631 C 176.73521890073445 93.65113441181717 132.01015992416416 C 0.0 **** -0.24
19632 H 177.4143486594796 93.99775329206892 131.2305334030096 H 0.0 **** 0.06
19633 H 175.73667859590404 94.04635831187795 131.82473964242746 H 0.0 **** 0.06
19634 H 177.09023924519857 93.99973524666456 132.9812137000332 H 0.0 **** 0.06
19635 H 176.70268922389823 92.5612790833199 132.005625047197 H 0.0 **** 0.06
19636 C 126.18040416488526 35.273457527618916 50.23269153507067 C 0.0 **** -0.24
19637 H 126.54706386243879 35.26088136396481 49.20624773653424 H 0.0 **** 0.06
19638 H 125.77837438877651 36.26071496355269 50.46210861852819 H 0.0 **** 0.06
19639 H 126.99993755194174 35.046100941933844 50.91399422754432 H 0.0 **** 0.06
19640 H 125.39553629425336 34.52627890511141 50.34684001598123 H 0.0 **** 0.06
19641 C 1.7801891261393337 150.3716576063256 67.55525316285969 C 0.0 **** -0.24
19642 H 1.7595766511287252 149.5898782228208 68.31391149274049 H 0.0 **** 0.06
19643 H 1.3206094492080354 151.27612148539984 67.95250490911008 H 0.0 **** 0.06
19644 H 1.227724595987354 150.0389430327328 66.67633204780856 H 0.0 **** 0.06
19645 H 2.8131289590347706 150.57991198873546 67.27738851372396 H 0.0 **** 0.06
19646 C 28.232680119525355 23.901661422598067 127.80391463012991 C 0.0 **** -0.24
19647 H 28.39527076537931 23.916007899660542 128.88179673538343 H 0.0 **** 0.06
19648 H 28.875132858259988 23.146942359118412 127.35021100529211 H 0.0 **** 0.06
19649 H 28.470752818644712 24.880212959200776 127.38796196152889 H 0.0 **** 0.06
19650 H 27.188732364561318 23.66280703961604 127.59704976930787 H 0.0 **** 0.06
19651 C 148.54885281249517 96.4577374331311 146.00320764730935 C 0.0 **** -0.24
19652 H 147.71645505826652 95.8233637851708 146.3052513168377 H 0.0 **** 0.06
19653 H 149.35283809204063 95.8374430426358 145.60658072976673 H 0.0 **** 0.06
19654 H 148.91261978696292 97.01529763849125 146.8663528099599 H 0.0 **** 0.06
19655 H 148.2148657036973 97.15450478165066 145.2347655724524 H 0.0 **** 0.06
19656 C 7.7306521931926895 130.8912069705292 16.925127188317063 C 0.0 **** -0.24
19657 H 8.182249162254301 131.03067845941962 15.943062405245449 H 0.0 **** 0.06
19658 H 8.469856382293074 131.10086318464755 17.698176215861075 H 0.0 **** 0.06
19659 H 7.383164069247428 129.8627211406178 17.02165313478001 H 0.0 **** 0.06
19660 H 6.8857495175320125 131.5720262173175 17.036460140843992 H 0.0 **** 0.06
19661 C 11.302258342771381 131.6986742025283 112.8123210774588 C 0.0 **** -0.24
19662 H 11.769713370019161 131.01520304048506 112.10311282577085 H 0.0 **** 0.06
19663 H 12.05352132232369 132.38314788268332 113.20630468178503 H 0.0 **** 0.06
19664 H 10.864927513007558 131.12740345252791 113.63172687545882 H 0.0 **** 0.06
19665 H 10.521446838823465 132.26678521593738 112.30713237671465 H 0.0 **** 0.06
19666 C 5.232797542183192 106.43136695649139 178.00911474054374 C 0.0 **** -0.24
19667 H 4.457725421707266 105.80151087179854 178.44401685208186 H 0.0 **** 0.06
19668 H 6.098050641835414 106.45139886242475 178.6718018178159 H 0.0 **** 0.06
19669 H 4.848943864538171 107.4437014530422 177.88073406471537 H 0.0 **** 0.06
19670 H 5.526566867994319 106.02879789599422 177.03891262947099 H 0.0 **** 0.06
19671 C 174.71826547724385 138.01231049525984 34.74085207179618 C 0.0 **** -0.24
19672 H 174.6813543672254 137.68647871250613 33.700852741090785 H 0.0 **** 0.06
19673 H 173.85888044467276 137.60940651437028 35.27809237722981 H 0.0 **** 0.06
19674 H 174.69471883708528 139.10038187067528 34.78136813485459 H 0.0 **** 0.06
19675 H 175.63681155683088 137.65011337076095 35.20203174773934 H 0.0 **** 0.06
19676 C 168.08779036825166 126.07045720824242 101.29552092419344 C 0.0 **** -0.24
19677 H 168.6138363383554 125.78740623790374 102.20692760289297 H 0.0 **** 0.06
19678 H 167.09834813522065 125.61529985763023 101.29114262771078 H 0.0 **** 0.06
19679 H 168.65146833048414 125.72393686847376 100.42926855062008 H 0.0 **** 0.06
19680 H 167.99024964745706 127.15599446685464 101.25565783870492 H 0.0 **** 0.06
19681 C 162.76955261282706 126.79585190307104 104.25916327314752 C 0.0 **** -0.24
19682 H 162.16021580655425 127.62303586833936 103.89483003100054 H 0.0 **** 0.06
19683 H 162.26681961832864 125.85239649567599 104.04179988389677 H 0.0 **** 0.06
19684 H 162.91035156881344 126.89401283188461 105.33545804854299 H 0.0 **** 0.06
19685 H 163.7397231772416 126.81369738577858 103.76161226798894 H 0.0 **** 0.06
19686 C 107.21626673663133 26.290741996549684 178.70939985395734 C 0.0 **** -0.24
19687 H 106.14708508169406 26.240823633015225 178.91861061200942 H 0.0 **** 0.06
19688 H 107.48524807248538 25.505183407687554 178.00394533142432 H 0.0 **** 0.06
19689 H 107.77366220920584 26.154372082893303 179.6363544955852 H 0.0 **** 0.06
19690 H 107.45676465235681 27.26402133721058 178.28030957361648 H 0.0 **** 0.06
19691 C 58.36617026790681 49.319871436515385 39.82198855217649 C 0.0 **** -0.24
19692 H 58.496703673122 50.1042890425949 39.07675140644278 H 0.0 **** 0.06
19693 H 59.157944667581745 48.578132415490415 39.71246726630204 H 0.0 **** 0.06
19694 H 57.39714950461925 48.84156910904679 39.679819623720675 H 0.0 **** 0.06
19695 H 58.41268664171896 49.75618360901001 40.8204930909464 H 0.0 **** 0.06
19696 C 162.81002077584026 164.53169100345647 129.45215937257927 C 0.0 **** -0.24
19697 H 163.07935167608534 164.43587716058687 130.50390835964873 H 0.0 **** 0.06
19698 H 163.63893179245574 164.98149648031512 128.9047582887507 H 0.0 **** 0.06
19699 H 161.92741600804783 165.16313449925963 129.35814735020853 H 0.0 **** 0.06
19700 H 162.59614335211802 163.54495506430663 129.04072285098113 H 0.0 **** 0.06
19701 C 171.726354394172 97.6677748697716 117.10205477335354 C 0.0 **** -0.24
19702 H 172.32788394286447 98.52232186540597 117.41061105280203 H 0.0 **** 0.06
19703 H 171.76848849834323 97.56815884224606 116.01648267600457 H 0.0 **** 0.06
19704 H 170.69265223366503 97.82008424781726 117.41323008000525 H 0.0 **** 0.06
19705 H 172.11598171298982 96.76186429014952 117.56614520794876 H 0.0 **** 0.06
19706 C 126.99298903845668 159.27841651661277 143.08544289555277 C 0.0 **** -0.24
19707 H 125.95891270425962 159.62326548476085 143.10954071852828 H 0.0 **** 0.06
19708 H 127.50463228543244 159.72400421022553 142.23191892029064 H 0.0 **** 0.06
19709 H 127.01066492682368 158.19208476109714 142.99397563208626 H 0.0 **** 0.06
19710 H 127.49534752703018 159.57403478277445 144.0059243601419 H 0.0 **** 0.06
19711 C 158.14155844760404 20.29731729750452 58.71113637243286 C 0.0 **** -0.24
19712 H 157.51538900603532 21.066875383073977 59.16257246603914 H 0.0 **** 0.06
19713 H 157.66210204800072 19.325272802636846 58.82970467144719 H 0.0 **** 0.06
19714 H 159.11418446118049 20.28613179566713 59.20243248534791 H 0.0 **** 0.06
19715 H 158.27256040502053 20.51138459940472 57.65075907026892 H 0.0 **** 0.06
19716 C 39.74984958488716 153.6229822333823 173.97945228808354 C 0.0 **** -0.24
19717 H 40.396407352556366 153.3867467635052 173.13327071023468 H 0.0 **** 0.06
19718 H 39.24859862340543 154.5741243721386 173.7992871536355 H 0.0 **** 0.06
19719 H 40.35098021103252 153.6943362130148 174.886527241496 H 0.0 **** 0.06
19720 H 39.00606765048195 152.83535752988507 174.098427555504 H 0.0 **** 0.06
19721 C 38.80620332899305 184.46884562366685 140.75137445539025 C 0.0 **** -0.24
19722 H 39.44594540132478 184.90736732200463 141.51745028233773 H 0.0 **** 0.06
19723 H 38.70548335429403 183.3974903346543 140.9313181954803 H 0.0 **** 0.06
19724 H 39.25062348550209 184.63185642325155 139.7695880407001 H 0.0 **** 0.06
19725 H 37.82305634840813 184.93771301190594 140.78714790865865 H 0.0 **** 0.06
19726 C 108.84980010026773 52.14409288058589 6.185405796615839 C 0.0 **** -0.24
19727 H 108.91200991852703 52.96285432431438 6.902266313504015 H 0.0 **** 0.06
19728 H 108.15724174595651 52.41121025911147 5.386936256765949 H 0.0 **** 0.06
19729 H 108.49245831333708 51.24594333867702 6.6902747295903 H 0.0 **** 0.06
19730 H 109.83645668634837 51.95498168026455 5.762293397084932 H 0.0 **** 0.06
19731 C 52.05587201447442 132.9016065004584 113.71284739678975 C 0.0 **** -0.24
19732 H 51.950990131644744 132.03015631546776 114.35824161795557 H 0.0 **** 0.06
19733 H 51.6235273642277 132.68515848613657 112.7359923811257 H 0.0 **** 0.06
19734 H 53.11318587336592 133.14270769156911 113.59691199752791 H 0.0 **** 0.06
19735 H 51.53694839699439 133.74968487006805 114.16030659847166 H 0.0 **** 0.06
19736 C 119.59239880607852 112.16200777849939 69.4339791378784 C 0.0 **** -0.24
19737 H 120.47413799388572 112.78750338628076 69.57121834053356 H 0.0 **** 0.06
19738 H 119.64263010663127 111.31010828283051 70.11294486405791 H 0.0 **** 0.06
19739 H 119.55701292002995 111.80496318416023 68.40487207234088 H 0.0 **** 0.06
19740 H 118.69660260744011 112.74422441611195 69.64780920380281 H 0.0 **** 0.06
19741 C 114.90690852514547 114.62394229070601 14.303057187993943 C 0.0 **** -0.24
19742 H 115.82935081301707 114.04637209993108 14.347635470464354 H 0.0 **** 0.06
19743 H 114.16601723187023 114.08033364908566 13.71731314380878 H 0.0 **** 0.06
19744 H 115.10494636726213 115.5881926537012 13.833793252592613 H 0.0 **** 0.06
19745 H 114.52868898379023 114.78265562346162 15.312517637300857 H 0.0 **** 0.06
19746 C 72.3114464653691 26.967862478721713 52.05052861910582 C 0.0 **** -0.24
19747 H 72.09351971447319 26.657604904268823 53.07213055487273 H 0.0 **** 0.06
19748 H 73.30164688094612 27.421388937207638 52.01114280212238 H 0.0 **** 0.06
19749 H 71.56586317977866 27.693618586840984 51.72463750726604 H 0.0 **** 0.06
19750 H 72.28269265312798 26.098383939773953 51.39347103963098 H 0.0 **** 0.06
19751 C 155.7900412531128 4.475225552015495 1.2769641511466503 C 0.0 **** -0.24
19752 H 155.09245715134625 4.890727527067575 2.004109865944045 H 0.0 **** 0.06
19753 H 155.4593278724966 3.4786773646208644 0.9857619654627143 H 0.0 **** 0.06
19754 H 156.78365802946388 4.413941076577807 1.720856342183538 H 0.0 **** 0.06
19755 H 155.82328900551727 5.1193801561944525 0.39791590871833193 H 0.0 **** 0.06
19756 C 148.9845962886744 107.93874549174235 3.0503316667504237 C 0.0 **** -0.24
19757 H 149.41848430591432 108.46959244046896 2.203439673334856 H 0.0 **** 0.06
19758 H 148.3156230990462 108.60695961797738 3.5933640198202283 H 0.0 **** 0.06
19759 H 149.7812023413219 107.60225510403937 3.7143711198233973 H 0.0 **** 0.06
19760 H 148.424314790186 107.0768551132898 2.6901859448531127 H 0.0 **** 0.06
19761 C 5.610962888590365 142.97246223991021 17.618555318274986 C 0.0 **** -0.24
19762 H 6.357467190890901 142.37630155440678 18.14274050570748 H 0.0 **** 0.06
19763 H 5.9940856824878495 143.98191094926196 17.466090195119023 H 0.0 **** 0.06
19764 H 4.698068815402422 143.01578392463685 18.212214307632678 H 0.0 **** 0.06
19765 H 5.39514096249394 142.51619064699668 16.652148826251874 H 0.0 **** 0.06
19766 C 74.93356014784399 36.79690880544909 112.56413459756452 C 0.0 **** -0.24
19767 H 73.94471324523266 36.86675884108368 112.11080233360944 H 0.0 **** 0.06
19768 H 75.14972180973751 37.71649630780894 113.1096842024104 H 0.0 **** 0.06
19769 H 75.68135626926494 36.65268672229199 111.78418567608908 H 0.0 **** 0.06
19770 H 74.95849025172214 35.95166965433333 113.25286506926709 H 0.0 **** 0.06
19771 C 139.03374954212654 122.23405069697058 93.19835897313231 C 0.0 **** -0.24
19772 H 139.3569057869051 121.79756102324318 94.14385471057017 H 0.0 **** 0.06
19773 H 139.11175628758247 121.48690222104379 92.40828905452202 H 0.0 **** 0.06
19774 H 139.66910686339054 123.08644666149551 92.95708616840074 H 0.0 **** 0.06
19775 H 137.99875856696133 122.56492354255768 93.28694912615333 H 0.0 **** 0.06
19776 C 96.819355189283 12.516316496504231 98.89446221615373 C 0.0 **** -0.24
19777 H 97.68915158779375 12.772455590883666 98.28930078364516 H 0.0 **** 0.06
19778 H 95.97359302798286 12.29960329444075 98.2410632988537 H 0.0 **** 0.06
19779 H 96.57023020802366 13.354147173435798 99.54553967649161 H 0.0 **** 0.06
19780 H 97.04397565498543 11.640286610506685 99.501421525725 H 0.0 **** 0.06
19781 C 86.71101962151299 13.176756580149544 36.16718814770479 C 0.0 **** -0.24
19782 H 85.75197492304751 13.468954891849819 36.59557791194351 H 0.0 **** 0.06
19783 H 87.0027413922168 13.898713497587664 35.4047512850733 H 0.0 **** 0.06
19784 H 86.61931313294848 12.188417849863526 35.71608854392824 H 0.0 **** 0.06
19785 H 87.46673483419367 13.149625803734125 36.951199475621195 H 0.0 **** 0.06
19786 C 168.3746196760459 106.58483738814529 166.95054109911726 C 0.0 **** -0.24
19787 H 168.7203778193926 107.51094142899477 167.41086707073697 H 0.0 **** 0.06
19788 H 167.74733816983218 106.04063911499829 167.65616741726004 H 0.0 **** 0.06
19789 H 169.23418369404166 105.97261478988541 166.67850517924606 H 0.0 **** 0.06
19790 H 167.79781390485002 106.8190022413702 166.05533313018097 H 0.0 **** 0.06
19791 C 40.73632775161225 122.35607691121113 85.25059975060368 C 0.0 **** -0.24
19792 H 41.68340584416008 121.95424118483739 84.89045880660048 H 0.0 **** 0.06
19793 H 40.92906380248934 123.1324202663895 85.99124418648687 H 0.0 **** 0.06
19794 H 40.15292729923584 121.55589839295455 85.70546412654663 H 0.0 **** 0.06
19795 H 40.181472880600296 122.7802042427288 84.41414208587913 H 0.0 **** 0.06
19796 C 34.54984746253564 5.95349212496258 180.7226038737069 C 0.0 **** -0.24
19797 H 33.66011482640042 6.518427463212248 180.44564855664322 H 0.0 **** 0.06
19798 H 34.25450449040659 4.980103979444969 181.11383194277806 H 0.0 **** 0.06
19799 H 35.1026306572993 6.499585514795875 181.48708808897092 H 0.0 **** 0.06
19800 H 35.182079602737076 5.816484512756816 179.84545805192792 H 0.0 **** 0.06
19801 C 162.09519666844085 180.79110071069937 89.53955550740825 C 0.0 **** -0.24
19802 H 161.33867848023345 180.6337922081789 88.76941287084215 H 0.0 **** 0.06
19803 H 162.1373500603179 179.91796217089552 90.19077785688144 H 0.0 **** 0.06
19804 H 161.8363776733378 181.67133635862925 90.1270291375201 H 0.0 **** 0.06
19805 H 163.06632380010115 180.94158044783782 89.0678879247135 H 0.0 **** 0.06
19806 C 106.57778442821262 77.53694905721201 102.24657227991186 C 0.0 **** -0.24
19807 H 106.38843530652207 78.5716363827311 101.96038454871278 H 0.0 **** 0.06
19808 H 105.98266083941303 76.87331858318754 101.61871808669703 H 0.0 **** 0.06
19809 H 106.30263483724133 77.39304977698235 103.29091946240688 H 0.0 **** 0.06
19810 H 107.63527931067574 77.31072708345485 102.11369816171602 H 0.0 **** 0.06
19811 C 75.34539162654288 141.67635963463704 118.44683482917851 C 0.0 **** -0.24
19812 H 75.37370796106728 140.65152645090234 118.07603366182657 H 0.0 **** 0.06
19813 H 74.30941911001494 141.97664762428997 118.60577647141129 H 0.0 **** 0.06
19814 H 75.80848259472624 142.33964109692778 117.71746813305334 H 0.0 **** 0.06
19815 H 75.88973135459993 141.7359185928977 119.38908232523447 H 0.0 **** 0.06
19816 C 148.64868209763864 102.96624441794825 26.580802249554495 C 0.0 **** -0.24
19817 H 149.4151707836926 102.47472076200097 25.982228999710628 H 0.0 **** 0.06
19818 H 148.19142724974503 102.23924077400267 27.252988311827238 H 0.0 **** 0.06
19819 H 147.88618044512086 103.3817589896965 25.92228404628287 H 0.0 **** 0.06
19820 H 149.10115921145248 103.76720766784933 27.16462386003684 H 0.0 **** 0.06
19821 C 122.1944009946561 121.01611650739181 107.87218513343385 C 0.0 **** -0.24
19822 H 121.35867269436746 121.07982257466028 107.17622027958214 H 0.0 **** 0.06
19823 H 122.89476126298756 120.25333037607976 107.53050809283968 H 0.0 **** 0.06
19824 H 121.82316423940397 120.75074689901447 108.86285038674202 H 0.0 **** 0.06
19825 H 122.70167108977755 121.97963006997804 107.91998707039102 H 0.0 **** 0.06
19826 C 123.6784423590001 43.60877002857403 101.25856498773192 C 0.0 **** -0.24
19827 H 124.67197330270282 44.04128684272433 101.13799613742765 H 0.0 **** 0.06
19828 H 123.77013602694142 42.54987687536368 101.50044497079136 H 0.0 **** 0.06
19829 H 123.1178133203485 43.7231020636448 100.33131064983661 H 0.0 **** 0.06
19830 H 123.15432203262709 44.1217562553589 102.0654499845304 H 0.0 **** 0.06
19831 C 172.24350077235715 182.88841927171336 42.35111165100612 C 0.0 **** -0.24
19832 H 172.89652268979492 182.545050179879 41.54873742012191 H 0.0 **** 0.06
19833 H 171.2999831951678 183.23244216619636 41.928745500777154 H 0.0 **** 0.06
19834 H 172.72487269419207 183.7085637583418 42.884656850580555 H 0.0 **** 0.06
19835 H 172.05552452451704 182.06709854538502 43.04174362800718 H 0.0 **** 0.06
19836 C 125.12318452318773 140.0390398034939 79.89335787186559 C 0.0 **** -0.24
19837 H 124.11394650875322 139.8613647410769 79.52194224877383 H 0.0 **** 0.06
19838 H 125.7384416757569 139.15815657566066 79.70766791524466 H 0.0 **** 0.06
19839 H 125.08591042197266 140.23673440032775 80.96482549209418 H 0.0 **** 0.06
19840 H 125.55338180788642 140.89862144365566 79.38010837561967 H 0.0 **** 0.06
19841 C 3.1178684237713696 113.81061357608188 35.46542395023559 C 0.0 **** -0.24
19842 H 2.286384892537569 113.30894309608745 35.96141513294501 H 0.0 **** 0.06
19843 H 4.022463052214732 113.69003532854798 36.06159826316744 H 0.0 **** 0.06
19844 H 2.8901918698912823 114.87060594123109 35.3584337387866 H 0.0 **** 0.06
19845 H 3.2708843543612147 113.36993854300054 34.48017017117991 H 0.0 **** 0.06
19846 C 145.33907770661025 138.07708035487053 128.91078947729574 C 0.0 **** -0.24
19847 H 145.48407319245888 137.0232502417008 128.67376889498826 H 0.0 **** 0.06
19848 H 146.19725375194037 138.6491610616108 128.55896155178914 H 0.0 **** 0.06
19849 H 145.23990597774497 138.1959168051862 129.98946747127525 H 0.0 **** 0.06
19850 H 144.43452505384403 138.4378457344455 128.42067294590555 H 0.0 **** 0.06
19851 C 151.71717088079336 109.8992356222754 160.9222149630874 C 0.0 **** -0.24
19852 H 152.2188434856575 108.98226254890852 160.6147099743934 H 0.0 **** 0.06
19853 H 152.45832826622282 110.62067835591137 161.26758360575116 H 0.0 **** 0.06
19854 H 151.0202138885115 109.67833407207905 161.73105168060016 H 0.0 **** 0.06
19855 H 151.17129788278166 110.31566751220277 160.07551459160507 H 0.0 **** 0.06
19856 C 135.33437269736476 55.85088090259404 148.62176662701705 C 0.0 **** -0.24
19857 H 136.24069744965584 55.25227730739364 148.71381305779101 H 0.0 **** 0.06
19858 H 135.60172875402486 56.88497410872422 148.40374289056058 H 0.0 **** 0.06
19859 H 134.7754269565284 55.80831515315046 149.55658381734185 H 0.0 **** 0.06
19860 H 134.71888130042436 55.45585713674802 147.81279075721704 H 0.0 **** 0.06
19861 C 178.8821005490875 168.34206693262738 30.31450601272809 C 0.0 **** -0.24
19862 H 177.8723498694423 168.14884305860465 30.677112508022446 H 0.0 **** 0.06
19863 H 179.04511750193987 167.7928092197367 29.386880648109297 H 0.0 **** 0.06
19864 H 179.6040667394887 168.01639145839857 31.062418195601794 H 0.0 **** 0.06
19865 H 179.00391157978694 169.40986441701847 30.131252142542678 H 0.0 **** 0.06
19866 C 43.731907207146094 4.217913186505264 77.06078714177971 C 0.0 **** -0.24
19867 H 44.31783225750604 3.4101791217119697 76.62218951369552 H 0.0 **** 0.06
19868 H 43.23736024432807 4.779110116056593 76.26768079217327 H 0.0 **** 0.06
19869 H 44.39176150731856 4.881964817123759 77.62007608695107 H 0.0 **** 0.06
19870 H 42.98275300652577 3.7991876112702343 77.73273895483834 H 0.0 **** 0.06
19871 C 98.5262092333178 142.54818251850304 85.07923342241111 C 0.0 **** -0.24
19872 H 99.31917943742972 141.9141734065035 84.68430427584144 H 0.0 **** 0.06
19873 H 98.42027079077552 143.432568936022 84.44937540421205 H 0.0 **** 0.06
19874 H 98.77709280615609 142.85336497526518 86.09580191420014 H 0.0 **** 0.06
19875 H 97.58750310758772 141.99364694946541 85.08688137066326 H 0.0 **** 0.06
19876 C 66.8808907392623 76.92523574358273 160.4163770027092 C 0.0 **** -0.24
19877 H 66.29676680007157 77.38625307686931 161.21341252737025 H 0.0 **** 0.06
19878 H 67.82826837235066 76.56871307666432 160.82015486345153 H 0.0 **** 0.06
19879 H 67.07184000020237 77.6601941811657 159.63485936341476 H 0.0 **** 0.06
19880 H 66.32388174667716 76.08610713927203 159.99809173894928 H 0.0 **** 0.06
19881 C 69.90548464485295 133.39246876423329 109.40557000802521 C 0.0 **** -0.24
19882 H 70.79011992685606 133.41611919202336 108.76930006903216 H 0.0 **** 0.06
19883 H 69.27372200951854 132.55089126663415 109.12020941371644 H 0.0 **** 0.06
19884 H 69.34856054087473 134.3218695797754 109.28747672025575 H 0.0 **** 0.06
19885 H 70.21027983113015 133.2812437532886 110.44647070957377 H 0.0 **** 0.06
19886 C 24.658091028400577 66.5714010220835 11.960417057060596 C 0.0 **** -0.24
19887 H 24.952785213601203 67.53207804045974 12.383262628991716 H 0.0 **** 0.06
19888 H 23.887244498619452 66.7286736094182 11.205467824708862 H 0.0 **** 0.06
19889 H 24.266875174528025 65.93204497719125 12.751968302157373 H 0.0 **** 0.06
19890 H 25.524784593191328 66.09471107838442 11.502355567465422 H 0.0 **** 0.06
19891 C 21.766744905864428 18.427309441194566 49.919230123339446 C 0.0 **** -0.24
19892 H 21.46622005992799 19.03885977025979 50.76939854802794 H 0.0 **** 0.06
19893 H 22.665850863448 18.848774735677615 49.46888485143097 H 0.0 **** 0.06
19894 H 20.964016580981742 18.410105021327816 49.181891250495795 H 0.0 **** 0.06
19895 H 21.971840848263213 17.411387609043267 50.257041983625584 H 0.0 **** 0.06
19896 C 167.56080099937367 159.27728299321453 14.054203565767637 C 0.0 **** -0.24
19897 H 167.89474459924338 158.24020301277565 14.011528413876988 H 0.0 **** 0.06
19898 H 167.59797454627204 159.71113072679935 13.054788915617621 H 0.0 **** 0.06
19899 H 168.21241067434892 159.8419363757119 14.721030943709025 H 0.0 **** 0.06
19900 H 166.53803418218024 159.31362621278961 14.429445585232571 H 0.0 **** 0.06
19901 C 75.42436641706976 119.91376073231034 115.20978423480062 C 0.0 **** -0.24
19902 H 75.2721095713666 118.86693232155297 115.470472683173 H 0.0 **** 0.06
19903 H 76.27366300134526 119.99960917635762 114.53169520735634 H 0.0 **** 0.06
19904 H 75.62101644877096 120.48928586828906 116.11412263212497 H 0.0 **** 0.06
19905 H 74.52905707156825 120.29993463615374 114.72115524587946 H 0.0 **** 0.06
19906 C 63.07050030203024 4.0659330789994215 11.158611426348102 C 0.0 **** -0.24
19907 H 62.26606997103622 3.555065116288688 10.628897215627035 H 0.0 **** 0.06
19908 H 62.78063911438956 4.218001863978401 12.198464275586275 H 0.0 **** 0.06
19909 H 63.259488095631994 5.030702798228674 10.688413220129775 H 0.0 **** 0.06
19910 H 63.97486101088657 3.4579363066674773 11.118598656846302 H 0.0 **** 0.06
19911 C 65.22677866437854 114.43088173705068 169.52771053313455 C 0.0 **** -0.24
19912 H 65.24953875078853 115.20084259315409 168.75628482025672 H 0.0 **** 0.06
19913 H 65.6848815896152 114.81721274108743 170.43863942618094 H 0.0 **** 0.06
19914 H 65.77989435640308 113.55718745004721 169.1841924592549 H 0.0 **** 0.06
19915 H 64.19368684416023 114.15022153395445 169.7305170463774 H 0.0 **** 0.06
19916 C 109.15634660835558 158.15703065401533 57.04907489176638 C 0.0 **** -0.24
19917 H 109.16674685866509 157.06861546697306 57.10589544898676 H 0.0 **** 0.06
19918 H 108.21294022948133 158.53170018617 57.44458150039675 H 0.0 **** 0.06
19919 H 109.26440528585285 158.46679642205996 56.00920765241449 H 0.0 **** 0.06
19920 H 109.98339718510623 158.55910788018036 57.63489536747423 H 0.0 **** 0.06
19921 C 23.453247098915426 125.16115113338513 166.54783720215616 C 0.0 **** -0.24
19922 H 24.446019688731212 125.55697448352187 166.75888646611824 H 0.0 **** 0.06
19923 H 23.522599854534235 124.09017938550845 166.35601153715066 H 0.0 **** 0.06
19924 H 23.041922981743966 125.66176346120336 165.6716128485079 H 0.0 **** 0.06
19925 H 22.802445870652576 125.33568720330682 167.4048379568478 H 0.0 **** 0.06
19926 C 61.07328541281505 98.13996748487894 138.60496709917425 C 0.0 **** -0.24
19927 H 61.885099560988095 97.95205831041939 137.90262296502988 H 0.0 **** 0.06
19928 H 60.269514359586196 98.67108346163182 138.0966500354133 H 0.0 **** 0.06
19929 H 61.44254491529766 98.74528615200383 139.4334640036235 H 0.0 **** 0.06
19930 H 60.698260305296586 97.19117276347309 138.98799202691674 H 0.0 **** 0.06
19931 C 5.305201731834416 143.8081219304297 79.02243387266816 C 0.0 **** -0.24
19932 H 5.5246360718552125 142.9795720786416 79.69522883170487 H 0.0 **** 0.06
19933 H 4.680126445431277 143.4546691097673 78.20210505742983 H 0.0 **** 0.06
19934 H 6.237515798993478 144.20859376006624 78.62301406556202 H 0.0 **** 0.06
19935 H 4.778614594248452 144.59049510966963 79.56885546365817 H 0.0 **** 0.06
19936 C 165.17512194755778 87.41001610264067 67.7741878200572 C 0.0 **** -0.24
19937 H 165.08527750370365 88.16089795783358 66.98970087993042 H 0.0 **** 0.06
19938 H 164.1935831452089 87.22492674190823 68.21331983989278 H 0.0 **** 0.06
19939 H 165.8567745722864 87.77020317003587 68.5453670233727 H 0.0 **** 0.06
19940 H 165.56328435752835 86.48429415795641 67.34905231872396 H 0.0 **** 0.06
19941 C 11.098925940763309 107.34194865725344 165.9785590576269 C 0.0 **** -0.24
19942 H 10.671272289052126 108.23842335419 166.42760787185296 H 0.0 **** 0.06
19943 H 11.053861317207861 107.42344826636263 164.89173920141766 H 0.0 **** 0.06
19944 H 10.532468623393754 106.46863284971654 166.301693654772 H 0.0 **** 0.06
19945 H 12.137394558428184 107.23851164833881 166.2932860507459 H 0.0 **** 0.06
19946 C 49.499544528976685 22.75595002499962 176.20455230108172 C 0.0 **** -0.24
19947 H 49.92499918108996 23.411538210110507 176.964225144497 H 0.0 **** 0.06
19948 H 49.62783331825176 21.71699162010654 176.50991406732464 H 0.0 **** 0.06
19949 H 50.0074777656576 22.922459710656014 175.25516582075062 H 0.0 **** 0.06
19950 H 48.43715858735021 22.97275081440708 176.0918185495973 H 0.0 **** 0.06
19951 C 37.88302879712586 179.08648577696678 165.19580410493933 C 0.0 **** -0.24
19952 H 37.06506843119496 179.73178082410618 164.8755955751295 H 0.0 **** 0.06
19953 H 38.76216706198454 179.69416103818605 165.40987196410708 H 0.0 **** 0.06
19954 H 38.11609560774349 178.37543193947187 164.40348557371541 H 0.0 **** 0.06
19955 H 37.58784374551499 178.5449073956819 166.0943017379294 H 0.0 **** 0.06
19956 C 16.551660067506987 137.18224929516373 31.080409407651373 C 0.0 **** -0.24
19957 H 15.661959515372018 136.98147555622995 30.482410050985962 H 0.0 **** 0.06
19958 H 16.63295342869938 138.2545587253797 31.261025748682243 H 0.0 **** 0.06
19959 H 17.43570744076112 136.83551478376472 30.544160571799196 H 0.0 **** 0.06
19960 H 16.475287507289977 136.65743796942354 32.03192852554366 H 0.0 **** 0.06
19961 C 153.67188539185474 172.9389185704499 85.9941799642031 C 0.0 **** -0.24
19962 H 153.42309258759514 173.93179093021064 86.3682467617998 H 0.0 **** 0.06
19963 H 152.8284036952026 172.26820645211367 86.15448972090611 H 0.0 **** 0.06
19964 H 154.54466415834673 172.55973120871877 86.5249807858438 H 0.0 **** 0.06
19965 H 153.89203330188866 172.99817054071605 84.92821210871395 H 0.0 **** 0.06
19966 C 157.06418475133637 12.894752523319141 44.55708010428353 C 0.0 **** -0.24
19967 H 157.5616240386608 12.664244419993196 45.5002299240945 H 0.0 **** 0.06
19968 H 156.41867395691577 13.76267383882103 44.69029706312634 H 0.0 **** 0.06
19969 H 156.46563752682317 12.039185003497664 44.24380736448535 H 0.0 **** 0.06
19970 H 157.81367054005696 13.111744602783943 43.796090716274534 H 0.0 **** 0.06
19971 C 52.30466439822908 86.58862629614191 172.1237780340411 C 0.0 **** -0.24
19972 H 52.74551763497351 86.12586274001967 171.2409158283849 H 0.0 **** 0.06
19973 H 52.88056455595421 86.30944918296439 173.0057845516198 H 0.0 **** 0.06
19974 H 51.275437193049726 86.24704263335013 172.237322491813 H 0.0 **** 0.06
19975 H 52.31713021676434 87.67223834885965 172.00967777908406 H 0.0 **** 0.06
19976 C 39.18912205044245 1.5828728027104617 179.4972243367909 C 0.0 **** -0.24
19977 H 38.42620266632082 2.344133598220658 179.6578181078208 H 0.0 **** 0.06
19978 H 40.077950453273104 1.8317891535560449 180.0779653391622 H 0.0 **** 0.06
19979 H 39.44624118891531 1.543440627824495 178.4389052896185 H 0.0 **** 0.06
19980 H 38.80724217526193 0.6129398832205553 179.81435716848887 H 0.0 **** 0.06
19981 C 137.69906581389955 87.59548792969575 32.61906365794013 C 0.0 **** -0.24
19982 H 137.5132262153299 88.66956996775848 32.610709844464225 H 0.0 **** 0.06
19983 H 137.00040116280843 87.11218637924624 33.301842300591844 H 0.0 **** 0.06
19984 H 138.7208516579725 87.40597070172034 32.94926858601815 H 0.0 **** 0.06
19985 H 137.56244001830515 87.19547217780651 31.6143168461777 H 0.0 **** 0.06
19986 C 94.6265596178041 78.81705472797182 79.58269456340747 C 0.0 **** -0.24
19987 H 94.71829575351029 78.1705962876581 80.4552605033362 H 0.0 **** 0.06
19988 H 95.30452053314093 78.47094431046321 78.8020346131355 H 0.0 **** 0.06
19989 H 94.88123900192204 79.83941950689461 79.85990027129674 H 0.0 **** 0.06
19990 H 93.60103058096621 78.78513642523467 79.21399171039343 H 0.0 **** 0.06
19991 C 171.8691794011422 113.80467856849037 62.09624537291977 C 0.0 **** -0.24
19992 H 172.0827695089891 112.92014454410759 62.69653963033963 H 0.0 **** 0.06
19993 H 171.76885064204905 113.5161012667811 61.04933053603992 H 0.0 **** 0.06
19994 H 172.68432635117833 114.5199698156016 62.199648528838935 H 0.0 **** 0.06
19995 H 170.93932653766888 114.25979762272783 62.43819080193384 H 0.0 **** 0.06
19996 C 109.78045421829854 1.9879200235907462 99.1773420031986 C 0.0 **** -0.24
19997 H 110.09462778920592 1.2340891507395426 98.4555696421064 H 0.0 **** 0.06
19998 H 110.04587166895946 1.6599816508141245 100.18279333670104 H 0.0 **** 0.06
19999 H 108.70084615414218 2.1243007869251116 99.11218768064988 H 0.0 **** 0.06
20000 H 110.28015723759528 2.9308815530073673 98.9587104075709 H 0.0 **** 0.06
20001 C 69.37164719000432 104.40327010571015 18.572577890051086 C 0.0 **** -0.24
20002 H 69.68921025769363 104.78033939065064 17.600177341056508 H 0.0 **** 0.06
20003 H 69.60943140408658 105.13745221621785 19.34152107919698 H 0.0 **** 0.06
20004 H 69.89316835379311 103.4702392102629 18.787315871000253 H 0.0 **** 0.06
20005 H 68.29666913257304 104.22389466968646 18.559274207424075 H 0.0 **** 0.06
20006 C 19.08724261112002 100.67524630687802 91.88969975257002 C 0.0 **** -0.24
20007 H 19.9741510633298 100.53237280564252 91.2716868526608 H 0.0 **** 0.06
20008 H 18.716669497128414 99.70567096706878 92.22357788895344 H 0.0 **** 0.06
20009 H 18.315766678399704 101.17890731440235 91.30584371006309 H 0.0 **** 0.06
20010 H 19.34298017927435 101.2848741304208 92.75672200883572 H 0.0 **** 0.06
20011 C 180.6408939588131 21.055524171628818 175.44985647621962 C 0.0 **** -0.24
20012 H 179.89835147113038 21.84697245448686 175.35192479497613 H 0.0 **** 0.06
20013 H 180.13675751055655 20.10148476948509 175.60160167666965 H 0.0 **** 0.06
20014 H 181.28628872276624 21.26654631930964 176.30229627209334 H 0.0 **** 0.06
20015 H 181.24218274325128 21.007986547440424 174.54250686871526 H 0.0 **** 0.06
20016 C 49.558051834096304 103.79782086851844 143.69918723243418 C 0.0 **** -0.24
20017 H 50.634166238124365 103.62396307317368 143.74048693513328 H 0.0 **** 0.06
20018 H 49.044231033194606 103.0329969449187 144.28208682020505 H 0.0 **** 0.06
20019 H 49.222684769007245 103.75342529280539 142.66329664306983 H 0.0 **** 0.06
20020 H 49.33402965532392 104.78204351390224 144.1113816378028 H 0.0 **** 0.06
20021 C 24.121218177166114 166.08266869639004 25.07198033855036 C 0.0 **** -0.24
20022 H 23.567105440325776 165.3462404733029 24.4904204556355 H 0.0 **** 0.06
20023 H 23.58246636274994 166.29656520931675 25.995095243932354 H 0.0 **** 0.06
20024 H 24.226945846045368 166.99861729795714 24.49126167641009 H 0.0 **** 0.06
20025 H 25.109737327057644 165.68801511709793 25.31039562105383 H 0.0 **** 0.06
20026 C 81.9457711607557 103.28135020723118 100.70555926202182 C 0.0 **** -0.24
20027 H 81.87582201228645 104.04575763855416 101.47966181808174 H 0.0 **** 0.06
20028 H 82.9773361742695 102.9388326327176 100.6251000007404 H 0.0 **** 0.06
20029 H 81.62548292281056 103.70143723898497 99.75197722549423 H 0.0 **** 0.06
20030 H 81.30214268512697 102.44111525837695 100.96631773819747 H 0.0 **** 0.06
20031 C 91.89613126321247 118.11168097620232 140.04827957092414 C 0.0 **** -0.24
20032 H 91.75278078069566 118.46033333187675 141.0710222254919 H 0.0 **** 0.06
20033 H 91.39213096952743 117.15395758032618 139.9173102171589 H 0.0 **** 0.06
20034 H 92.96135707113918 117.99301579960736 139.85062352847717 H 0.0 **** 0.06
20035 H 91.47638282134388 118.84055168903946 139.3552593091307 H 0.0 **** 0.06
20036 C 93.48636478524305 19.7935920835897 115.87655441277963 C 0.0 **** -0.24
20037 H 93.23777695184943 20.58429923399408 116.58305608055679 H 0.0 **** 0.06
20038 H 92.63874569845318 19.61923969246849 115.2131959045829 H 0.0 **** 0.06
20039 H 93.71570965327156 18.877088965811048 116.42159786799664 H 0.0 **** 0.06
20040 H 94.35350110565791 20.092377158851825 115.28811033890372 H 0.0 **** 0.06
20041 C 91.23559796932325 72.74961036523075 111.75449125446785 C 0.0 **** -0.24
20042 H 91.26112847651883 73.31405199349528 112.68721427460635 H 0.0 **** 0.06
20043 H 90.20039903117494 72.54029600428206 111.48568275344026 H 0.0 **** 0.06
20044 H 91.77443760493911 71.81111209049081 111.88342220470774 H 0.0 **** 0.06
20045 H 91.70666434756556 73.33283299943555 110.96407923699472 H 0.0 **** 0.06
20046 C 61.463866139165475 92.86258163161226 165.35489749284085 C 0.0 **** -0.24
20047 H 61.076445669251086 93.62629398827933 166.0309272517825 H 0.0 **** 0.06
20048 H 62.17797502798351 93.31578214180301 164.66751030260332 H 0.0 **** 0.06
20049 H 60.640009150010286 92.42746526773512 164.79001099864143 H 0.0 **** 0.06
20050 H 61.9595152271535 92.08375168442358 165.9335685855204 H 0.0 **** 0.06
20051 C 124.2077029261609 107.41489746085269 91.59128396411053 C 0.0 **** -0.24
20052 H 124.690055930524 107.84715724579353 92.46777664068232 H 0.0 **** 0.06
20053 H 124.82994900518933 106.61295915676034 91.19237774782435 H 0.0 **** 0.06
20054 H 124.07735596761621 108.18549589873471 90.83156027852301 H 0.0 **** 0.06
20055 H 123.23486438642168 107.01393527730967 91.87341484437106 H 0.0 **** 0.06
20056 C 15.274950477086236 140.33036936770316 43.94881556762141 C 0.0 **** -0.24
20057 H 14.67188773008894 139.43019572084887 44.0720272493582 H 0.0 **** 0.06
20058 H 15.826426868167971 140.27169212013598 43.01000347004043 H 0.0 **** 0.06
20059 H 15.977449883772522 140.41284822448745 44.7776715053119 H 0.0 **** 0.06
20060 H 14.624793320271579 141.2049982448604 43.93438100402699 H 0.0 **** 0.06
20061 C 69.44664470101705 49.87336291513077 123.54394225167522 C 0.0 **** -0.24
20062 H 70.37183903136959 50.26029609871239 123.97076366657961 H 0.0 **** 0.06
20063 H 68.85201785547252 49.406018942322135 124.32867206581881 H 0.0 **** 0.06
20064 H 69.6820321335305 49.133587053703025 122.77797304447523 H 0.0 **** 0.06
20065 H 68.88184368854213 50.691754304643666 123.09769264866088 H 0.0 **** 0.06
20066 C 39.047177225090635 106.83999888059556 167.98089205868519 C 0.0 **** -0.24
20067 H 38.937585942096376 105.9348694890205 168.57750070462302 H 0.0 **** 0.06
20068 H 38.117949307162746 107.40942374029503 168.01087841284354 H 0.0 **** 0.06
20069 H 39.27582105679984 106.57026532264432 166.94943668411508 H 0.0 **** 0.06
20070 H 39.858163295096304 107.44655767793479 168.3854577666923 H 0.0 **** 0.06
20071 C 15.628556983225934 100.91717433098735 100.66876942022634 C 0.0 **** -0.24
20072 H 16.02665769269464 101.1797763605263 101.6489986623697 H 0.0 **** 0.06
20073 H 14.542666899197911 101.0146218182998 100.6802625806277 H 0.0 **** 0.06
20074 H 15.898998828730043 99.88869742181866 100.43095898564513 H 0.0 **** 0.06
20075 H 16.046176684460335 101.58612261292932 99.91614378259919 H 0.0 **** 0.06
20076 C 141.176680153218 130.59902160803347 46.255782709154886 C 0.0 **** -0.24
20077 H 140.77413061228168 130.2661394164458 47.21233781510328 H 0.0 **** 0.06
20078 H 141.97771692125173 129.92734672705376 45.94582733663765 H 0.0 **** 0.06
20079 H 141.56856140658994 131.6099641016084 46.35879568814579 H 0.0 **** 0.06
20080 H 140.3849598751354 130.59085689756023 45.506086955869506 H 0.0 **** 0.06
20081 C 168.3800695478078 110.04801786151154 43.89544239303885 C 0.0 **** -0.24
20082 H 169.31728719487654 109.87731882194294 44.424717625690334 H 0.0 **** 0.06
20083 H 168.02640843498682 111.05878319903042 44.09991885533009 H 0.0 **** 0.06
20084 H 167.6348091277687 109.32756906834555 44.232553362904554 H 0.0 **** 0.06
20085 H 168.54177027375388 109.92978510799662 42.823539282132884 H 0.0 **** 0.06
20086 C 91.0756498363371 132.31918332575458 62.1742233041108 C 0.0 **** -0.24
20087 H 92.11382534688931 132.3263972073724 61.84327177471404 H 0.0 **** 0.06
20088 H 90.86232640153088 133.2371941154518 62.72187161009569 H 0.0 **** 0.06
20089 H 90.90765213723324 131.46057066613247 62.82467733601156 H 0.0 **** 0.06
20090 H 90.41790306614445 132.25235998670303 61.306673748567746 H 0.0 **** 0.06
20091 C 0.9321056101045428 34.39361611462908 40.42474240146248 C 0.0 **** -0.24
20092 H 0.5706535907678614 34.00056141078004 41.374618068828454 H 0.0 **** 0.06
20093 H 1.24217152726348 35.43032065273965 40.55594145292616 H 0.0 **** 0.06
20094 H 0.13486506339392434 34.34272642756228 39.68373761531211 H 0.0 **** 0.06
20095 H 1.7817336579677487 33.800179457547316 40.08655386667897 H 0.0 **** 0.06
20096 C 51.92117304615647 136.3517201691713 67.478418168119 C 0.0 **** -0.24
20097 H 52.893080419831165 136.80189428633776 67.68061036739726 H 0.0 **** 0.06
20098 H 51.33974813176775 136.31461795653058 68.39957062797176 H 0.0 **** 0.06
20099 H 52.06158747084754 135.34181134878992 67.09430450763048 H 0.0 **** 0.06
20100 H 51.39133883636799 136.95172936783342 66.73784267452996 H 0.0 **** 0.06
20101 C 56.529428650607315 125.23926991284323 19.763636641214333 C 0.0 **** -0.24
20102 H 55.46336249910661 125.01046036469124 19.765516299370233 H 0.0 **** 0.06
20103 H 56.9503218536543 124.99987073963389 18.786543842553186 H 0.0 **** 0.06
20104 H 57.028912401357076 124.64735921901944 20.53033153858496 H 0.0 **** 0.06
20105 H 56.672775396332085 126.29986634215116 19.971620539383366 H 0.0 **** 0.06
20106 C 86.05010752193203 139.9219867947901 79.765863588387 C 0.0 **** -0.24
20107 H 85.09404181799238 139.85322770682626 79.24724049564519 H 0.0 **** 0.06
20108 H 85.88451717695563 139.85748072708873 80.84158389787673 H 0.0 **** 0.06
20109 H 86.52453661688838 140.87338826662221 79.5279757886904 H 0.0 **** 0.06
20110 H 86.69631102145865 139.1043488772957 79.44749333116307 H 0.0 **** 0.06
20111 C 29.83183750467134 123.2067709398839 104.16550009828542 C 0.0 **** -0.24
20112 H 30.439350322960763 123.94033642732312 104.69594634992204 H 0.0 **** 0.06
20113 H 30.484116172441418 122.48843927336806 103.6671723330556 H 0.0 **** 0.06
20114 H 29.216831886116665 123.71516668472744 103.42236064969045 H 0.0 **** 0.06
20115 H 29.18973169987646 122.68519979863139 104.87491466749553 H 0.0 **** 0.06
20116 C 89.56169879084992 119.87300720642587 134.90003136312424 C 0.0 **** -0.24
20117 H 89.54356252460191 119.53552247495692 133.86441634729056 H 0.0 **** 0.06
20118 H 90.13469932391824 119.16802064945075 135.5019306029111 H 0.0 **** 0.06
20119 H 88.54210463278828 119.93254258531293 135.2806961142643 H 0.0 **** 0.06
20120 H 90.02676410744017 120.85813925023747 134.95282820749435 H 0.0 **** 0.06
20121 C 10.703031922125234 160.82242970303008 162.2388485852476 C 0.0 **** -0.24
20122 H 11.083779620823577 161.5090717122625 161.48237762152573 H 0.0 **** 0.06
20123 H 11.111233557329172 161.09316403696982 163.21307788682572 H 0.0 **** 0.06
20124 H 11.001951019657412 159.80414645858843 161.98965794225606 H 0.0 **** 0.06
20125 H 9.614967920582671 160.88494284429612 162.2708988058712 H 0.0 **** 0.06
20126 C 174.71965623685702 124.2287410947763 93.58938846548556 C 0.0 **** -0.24
20127 H 174.14380853398978 123.77039635245512 94.39397401510256 H 0.0 **** 0.06
20128 H 174.69529639521136 123.58180269557073 92.7118967595476 H 0.0 **** 0.06
20129 H 175.751086651028 124.36483143448527 93.91337930568555 H 0.0 **** 0.06
20130 H 174.28594480906645 125.19639585950796 93.33950451783677 H 0.0 **** 0.06
20131 C 181.43864161371522 117.8525733142937 16.066033049352008 C 0.0 **** -0.24
20132 H 181.0103194269523 117.22072095833205 16.844897028538142 H 0.0 **** 0.06
20133 H 182.39685299733566 118.24698095586369 16.403240557152017 H 0.0 **** 0.06
20134 H 180.75915537048405 118.67799130770187 15.853752706222068 H 0.0 **** 0.06
20135 H 181.58620378861576 117.26238073045347 15.161275349063239 H 0.0 **** 0.06
20136 C 64.1021892038193 91.97222289037605 79.0192853216189 C 0.0 **** -0.24
20137 H 64.72502005344421 91.67849803594781 79.86470582426307 H 0.0 **** 0.06
20138 H 63.08777138876356 92.16933804083779 79.36614765725074 H 0.0 **** 0.06
20139 H 64.0859096310469 91.16706775273589 78.2844611568986 H 0.0 **** 0.06
20140 H 64.51189052768407 92.87319561279749 78.56190543658761 H 0.0 **** 0.06
20141 C 8.819529665667858 123.40590004877897 112.19736111226148 C 0.0 **** -0.24
20142 H 8.930955361173943 123.11826992685918 113.24211206570168 H 0.0 **** 0.06
20143 H 9.441654243232364 124.27782689321371 111.9921734343172 H 0.0 **** 0.06
20144 H 7.7759816986262535 123.64892632145221 111.99731053412695 H 0.0 **** 0.06
20145 H 9.12872697261588 122.58008886149302 111.55757658476055 H 0.0 **** 0.06
20146 C 22.955944169355377 145.095516306848 89.63976567706396 C 0.0 **** -0.24
20147 H 22.27419707626214 145.22100825320422 90.48077401755108 H 0.0 **** 0.06
20148 H 23.908078984856445 144.70260441778987 89.99858449352973 H 0.0 **** 0.06
20149 H 23.118166801145662 146.0588248104739 89.1564346284872 H 0.0 **** 0.06
20150 H 22.522550143994238 144.39797408468766 88.92246249813115 H 0.0 **** 0.06
20151 C 94.64777230592433 148.771602710668 169.1303084795201 C 0.0 **** -0.24
20152 H 94.10493717701398 148.8772346743607 168.1911155975322 H 0.0 **** 0.06
20153 H 94.89136436575772 147.72106268078062 169.2918384797407 H 0.0 **** 0.06
20154 H 94.02784834404552 149.13176564697966 169.95109303976568 H 0.0 **** 0.06
20155 H 95.56713667142616 149.35491485832375 169.08548159003197 H 0.0 **** 0.06
20156 C 161.5402670825028 8.642402924178391 141.61626894936262 C 0.0 **** -0.24
20157 H 161.67442155391734 9.273508150529636 140.73803542601934 H 0.0 **** 0.06
20158 H 162.04503792534248 7.689753855096804 141.45886346626372 H 0.0 **** 0.06
20159 H 160.4765107948491 8.468885219551069 141.78005704423214 H 0.0 **** 0.06
20160 H 161.96568862372132 9.140162004091884 142.48873202552267 H 0.0 **** 0.06
20161 C 119.01683895600353 44.95407572781136 26.023948642473286 C 0.0 **** -0.24
20162 H 119.34208397102954 43.9193003740227 26.13681599741183 H 0.0 **** 0.06
20163 H 119.80983711090148 45.5336746289974 25.550855189167137 H 0.0 **** 0.06
20164 H 118.7947777358418 45.37350598852635 27.00477809415804 H 0.0 **** 0.06
20165 H 118.12166020557835 44.98704338079426 25.40221676809071 H 0.0 **** 0.06
20166 C 53.161194327308124 76.17587723991329 18.892822265573926 C 0.0 **** -0.24
20167 H 53.70692976802604 75.78195066188078 19.751020423266937 H 0.0 **** 0.06
20168 H 52.09019938168723 76.11814587888836 19.085931738583724 H 0.0 **** 0.06
20169 H 53.40444412582718 75.58719322455886 18.00749517125439 H 0.0 **** 0.06
20170 H 53.446052685265386 77.21485976496217 18.72703507646895 H 0.0 **** 0.06
20171 C 93.53916218099947 163.43417193043928 106.31575588762853 C 0.0 **** -0.24
20172 H 94.06430800955052 163.3351142549917 105.36487795651782 H 0.0 **** 0.06
20173 H 93.64225093542369 162.50999847385637 106.88492766167782 H 0.0 **** 0.06
20174 H 92.48357238329108 163.631516678069 106.12861798106213 H 0.0 **** 0.06
20175 H 93.96836537302313 164.26042074821862 106.88303349976648 H 0.0 **** 0.06
20176 C 75.68681022570807 61.92095334151948 103.08511692729435 C 0.0 **** -0.24
20177 H 75.91128741711763 62.024308262980156 104.14592797159669 H 0.0 **** 0.06
20178 H 75.60187216175417 60.8631267702109 102.8332223618305 H 0.0 **** 0.06
20179 H 76.48795133417454 62.37050710329268 102.49911975711886 H 0.0 **** 0.06
20180 H 74.74673812184497 62.4245946727804 102.86217256808995 H 0.0 **** 0.06
20181 C 167.2212475751254 46.54239805119386 118.96051526279568 C 0.0 **** -0.24
20182 H 166.22789938915383 46.338795219418984 118.56091092596499 H 0.0 **** 0.06
20183 H 167.8641209110795 46.915125061029315 118.16306757543354 H 0.0 **** 0.06
20184 H 167.64294942162257 45.62411208117405 119.36855543263785 H 0.0 **** 0.06
20185 H 167.1480707256585 47.290505450962414 119.7492330865169 H 0.0 **** 0.06
20186 C 182.45392899477696 114.49164818014941 104.21889233671743 C 0.0 **** -0.24
20187 H 182.11366532262014 114.42078210892333 105.2511490651583 H 0.0 **** 0.06
20188 H 183.33791595847413 113.86680407904367 104.08442930813146 H 0.0 **** 0.06
20189 H 182.70178410453542 115.52717294577172 103.98826354691192 H 0.0 **** 0.06
20190 H 181.66289453402362 114.1501345612262 103.55082324779045 H 0.0 **** 0.06
20191 C 98.18962348256959 171.9148320813411 58.75021131678798 C 0.0 **** -0.24
20192 H 97.91817382877944 172.96242511560754 58.61972267838844 H 0.0 **** 0.06
20193 H 97.39112390182758 171.28224935620855 58.363119769099825 H 0.0 **** 0.06
20194 H 98.33569383092716 171.7071374104442 59.810683270337464 H 0.0 **** 0.06
20195 H 99.11269176264487 171.70863424517708 58.20934281020094 H 0.0 **** 0.06
20196 C 128.25688619750383 160.57866605988977 99.73140243657512 C 0.0 **** -0.24
20197 H 128.59336751718433 161.6047246518242 99.87394508618338 H 0.0 **** 0.06
20198 H 127.3013184543435 160.57901111908683 99.20606392017449 H 0.0 **** 0.06
20199 H 128.13836905565557 160.09683499350817 100.70189039250327 H 0.0 **** 0.06
20200 H 128.99459017140748 160.0325926509331 99.14239218823836 H 0.0 **** 0.06
20201 C 123.65260957856593 122.17833106290867 19.695286469402127 C 0.0 **** -0.24
20202 H 124.42578594361153 121.67920204213077 20.27786423119668 H 0.0 **** 0.06
20203 H 123.96423751872372 122.23509341104649 18.651507532969454 H 0.0 **** 0.06
20204 H 123.49807561838419 123.18563523859062 20.083864584393858 H 0.0 **** 0.06
20205 H 122.72207908402659 121.61462483483227 19.766719420510185 H 0.0 **** 0.06
20206 C 151.1110694469516 182.35180367439082 156.77967738509432 C 0.0 **** -0.24
20207 H 150.49635909365134 182.08213702002945 155.92179254313302 H 0.0 **** 0.06
20208 H 150.79940773704453 181.76886816736783 157.64743805616476 H 0.0 **** 0.06
20209 H 150.9916121173382 183.4140082718512 156.99316907903986 H 0.0 **** 0.06
20210 H 152.15689667690995 182.14184763711896 156.55767917243045 H 0.0 **** 0.06
20211 C 85.91020750593742 60.35109725330844 161.09457044452824 C 0.0 **** -0.24
20212 H 85.61028510259001 60.18483294858969 162.12912208221294 H 0.0 **** 0.06
20213 H 85.02384755602509 60.39173910656703 160.4608720455289 H 0.0 **** 0.06
20214 H 86.55326404746381 59.53354430536996 160.7672039080697 H 0.0 **** 0.06
20215 H 86.45389505419445 61.293433069952485 161.02079751704687 H 0.0 **** 0.06
20216 C 73.56262197804153 22.257713875780183 146.65792427674597 C 0.0 **** -0.24
20217 H 72.50155514670003 22.49237829217168 146.57413793788785 H 0.0 **** 0.06
20218 H 73.68206931234948 21.289906714927312 147.14717170986353 H 0.0 **** 0.06
20219 H 74.05889838816454 23.027642833959405 147.24761780361615 H 0.0 **** 0.06
20220 H 74.00538952740283 22.218863784206846 145.66309720163724 H 0.0 **** 0.06
20221 C 96.60560508744034 15.437360020161158 12.150768927317841 C 0.0 **** -0.24
20222 H 96.15443487242366 14.757803513006557 11.42776356527051 H 0.0 **** 0.06
20223 H 97.6834573970008 15.27530755882502 12.177466820927663 H 0.0 **** 0.06
20224 H 96.1856465304444 15.247381818099832 13.1381910460114 H 0.0 **** 0.06
20225 H 96.39953416429869 16.4667174834699 11.858877972780647 H 0.0 **** 0.06
20226 C 24.87865457105454 102.48084461608626 161.4691328752109 C 0.0 **** -0.24
20227 H 23.838178659074117 102.16181247267569 161.40693372167812 H 0.0 **** 0.06
20228 H 25.528507591142272 101.60679165227687 161.43986159159152 H 0.0 **** 0.06
20229 H 25.036904947486278 103.0219159886477 162.40179676994143 H 0.0 **** 0.06
20230 H 25.10812659698459 103.13343050466814 160.62742949332008 H 0.0 **** 0.06
20231 C 120.42354905422214 91.43560351351475 66.29484313930328 C 0.0 **** -0.24
20232 H 120.13100789197911 90.47300019882074 65.87587550248912 H 0.0 **** 0.06
20233 H 119.90575189049177 91.59148895903549 67.2416917063666 H 0.0 **** 0.06
20234 H 120.15451925077475 92.23058285389759 65.59872088169826 H 0.0 **** 0.06
20235 H 121.50009584300322 91.44707710565432 66.46209954635708 H 0.0 **** 0.06
20236 C 151.87175468981394 32.36764692075303 4.221943684639541 C 0.0 **** -0.24
20237 H 151.07598474328896 31.769486224641668 3.777563951335388 H 0.0 **** 0.06
20238 H 151.59883524516812 32.63532597659588 5.2424735720341005 H 0.0 **** 0.06
20239 H 152.01486081100614 33.2742412075161 3.6337848574695286 H 0.0 **** 0.06
20240 H 152.797044911338 31.791631777445446 4.2317376931156545 H 0.0 **** 0.06
20241 C 64.5572794199965 42.12988293941737 13.734045505924627 C 0.0 **** -0.24
20242 H 65.61411886845933 41.8810231278037 13.6421405690416 H 0.0 **** 0.06
20243 H 64.26829605078795 42.79550120688259 12.92081534623776 H 0.0 **** 0.06
20244 H 64.38170451524066 42.62369423951395 14.68930996867931 H 0.0 **** 0.06
20245 H 63.96441281955829 41.21563710081807 13.68353661527496 H 0.0 **** 0.06
20246 C 0.47647602178045645 73.66814637405099 93.67899502444634 C 0.0 **** -0.24
20247 H 0.4788431582182966 73.85953527375538 92.60657205986725 H 0.0 **** 0.06
20248 H 0.7814074184346396 74.57042910837221 94.20909508475059 H 0.0 **** 0.06
20249 H 1.171021269796654 72.85997730765558 93.90596637882841 H 0.0 **** 0.06
20250 H -0.527110740930766 73.38341661980499 93.99495062190793 H 0.0 **** 0.06
20251 C 3.8108320590554285 98.562637715645 12.053532748276552 C 0.0 **** -0.24
20252 H 4.419690918844822 97.6672937682572 11.928815215151417 H 0.0 **** 0.06
20253 H 4.266216488379314 99.39042359243189 11.509820572542708 H 0.0 **** 0.06
20254 H 3.7478187570243904 98.81390789732768 13.1120954398163 H 0.0 **** 0.06
20255 H 2.8098665286013897 98.37901691076553 11.662439687169638 H 0.0 **** 0.06
20256 C 147.20805954654284 59.47683050707097 2.103317265328201 C 0.0 **** -0.24
20257 H 146.81071305070276 58.83246713037421 1.3188078803335088 H 0.0 **** 0.06
20258 H 146.5827168126824 59.39258108789163 2.9926664027867105 H 0.0 **** 0.06
20259 H 147.21184722109916 60.50993172097019 1.7576543279328405 H 0.0 **** 0.06
20260 H 148.22627199434748 59.17003419944476 2.344586460286166 H 0.0 **** 0.06
20261 C 168.5411989360032 67.26664835035476 46.61208366413301 C 0.0 **** -0.24
20262 H 168.01726548756693 66.3865637025529 46.239830919611975 H 0.0 **** 0.06
20263 H 167.9025987335701 67.79745145973664 47.31965433625692 H 0.0 **** 0.06
20264 H 168.78405634459182 67.92452165054084 45.77794197949383 H 0.0 **** 0.06
20265 H 169.459050050667 66.958783398543 47.111975494222676 H 0.0 **** 0.06
20266 C 39.13170852235493 134.28598037734588 74.06740374921787 C 0.0 **** -0.24
20267 H 39.847273714695575 133.6693329460369 74.61175912648173 H 0.0 **** 0.06
20268 H 38.11988327648589 133.94472208237897 74.28407121026805 H 0.0 **** 0.06
20269 H 39.32277823335562 134.20299867599778 72.99679606996074 H 0.0 **** 0.06
20270 H 39.23913365488988 135.32637878910714 74.37611296158707 H 0.0 **** 0.06
20271 C 71.32456552740615 56.81713067686306 115.50611465168008 C 0.0 **** -0.24
20272 H 70.74508860817537 55.96120041162604 115.85343045537122 H 0.0 **** 0.06
20273 H 70.86372249917767 57.73696042790499 115.8653740030192 H 0.0 **** 0.06
20274 H 71.34501790355765 56.821791798462286 114.41594982139831 H 0.0 **** 0.06
20275 H 72.34233860815192 56.74614668061287 115.88884376452769 H 0.0 **** 0.06
20276 C 57.461387153907054 85.91369751517449 100.35428192815361 C 0.0 **** -0.24
20277 H 57.37961318465477 85.0844506769299 99.65138217005658 H 0.0 **** 0.06
20278 H 56.47806646161365 86.13711011025332 100.76748112763339 H 0.0 **** 0.06
20279 H 57.84530136419198 86.7918130888553 99.8351737719144 H 0.0 **** 0.06
20280 H 58.142315615613654 85.64067312827665 101.16002721100877 H 0.0 **** 0.06
20281 C 158.7165314809675 22.847237134000522 123.83184668035334 C 0.0 **** -0.24
20282 H 158.04433229635973 23.225987569054496 123.06115299521899 H 0.0 **** 0.06
20283 H 158.20483913874392 22.850866412725566 124.79425830636528 H 0.0 **** 0.06
20284 H 159.59939320901213 23.483438262819448 123.88733213461303 H 0.0 **** 0.06
20285 H 159.01679870883544 21.829396630642606 123.58371031531671 H 0.0 **** 0.06
20286 C 162.727570401614 79.1153328599138 122.77661206398453 C 0.0 **** -0.24
20287 H 162.70543200778468 79.81837499877153 121.94410680944016 H 0.0 **** 0.06
20288 H 163.71962246215634 78.6693323353752 122.85003286287362 H 0.0 **** 0.06
20289 H 161.98751323844445 78.33142904842707 122.61030928014894 H 0.0 **** 0.06
20290 H 162.49601848650005 79.64222429912128 123.70235257200615 H 0.0 **** 0.06
20291 C 180.2423293848601 155.1188073457485 101.43661451646362 C 0.0 **** -0.24
20292 H 181.14385145428236 155.26382970043497 100.84079335632133 H 0.0 **** 0.06
20293 H 179.52252373356703 154.528688222541 100.86821180610839 H 0.0 **** 0.06
20294 H 179.80803535702722 156.08866711039403 101.67963118736269 H 0.0 **** 0.06
20295 H 180.4968254068633 154.5929728809532 102.35740726134709 H 0.0 **** 0.06
20296 C 78.15752670845592 123.3644789074706 160.47047499167425 C 0.0 **** -0.24
20297 H 77.57077377419157 124.28046534317981 160.39917131592284 H 0.0 **** 0.06
20298 H 78.68609366196975 123.34499938476695 161.42349172008542 H 0.0 **** 0.06
20299 H 78.87678429769959 123.32892375505791 159.65346601670626 H 0.0 **** 0.06
20300 H 77.49290626879812 122.5029810729781 160.40682350443964 H 0.0 **** 0.06
20301 C 57.11704473397188 132.1149586214337 132.90290034254997 C 0.0 **** -0.24
20302 H 57.41283477573427 131.0811694567239 132.7225324041027 H 0.0 **** 0.06
20303 H 56.02964634514706 132.1804691908057 132.9356946270663 H 0.0 **** 0.06
20304 H 57.4963255636674 132.7463316942986 132.09925212093822 H 0.0 **** 0.06
20305 H 57.53053779555306 132.44972098684178 133.8539019165483 H 0.0 **** 0.06
20306 C 125.49282786879358 35.23958929529749 36.635246853968056 C 0.0 **** -0.24
20307 H 125.00317140022825 35.19249559565458 35.663163493120976 H 0.0 **** 0.06
20308 H 126.42521058014886 35.79782207296523 36.54566431894716 H 0.0 **** 0.06
20309 H 125.70468200520249 34.22986639615226 36.98424944517319 H 0.0 **** 0.06
20310 H 124.83715528047237 35.74012416456043 37.347885380554885 H 0.0 **** 0.06
20311 C 122.76532050052451 47.627852149151494 64.42712719054761 C 0.0 **** -0.24
20312 H 123.58756708698586 47.46282391558168 65.12304570922831 H 0.0 **** 0.06
20313 H 123.13784088070663 48.13773727735969 63.53802027101867 H 0.0 **** 0.06
20314 H 122.0018193059286 48.24194242707739 64.90549884404035 H 0.0 **** 0.06
20315 H 122.33278977845389 46.66829440926796 64.14177913979215 H 0.0 **** 0.06
20316 C 92.24303318745592 55.235334567974576 112.26751238659745 C 0.0 **** -0.24
20317 H 92.96440313440058 55.58797059347795 111.52954516066887 H 0.0 **** 0.06
20318 H 92.45897560744584 55.69132691052714 113.23395029426734 H 0.0 **** 0.06
20319 H 92.31305118235468 54.15099101276296 112.35285226604691 H 0.0 **** 0.06
20320 H 91.23684147511477 55.51073308412285 111.95155628465977 H 0.0 **** 0.06
20321 C 151.0084136174575 3.269382350645323 84.33517871259625 C 0.0 **** -0.24
20322 H 149.9656147493585 3.5708721308919706 84.4346864983089 H 0.0 **** 0.06
20323 H 151.12513644525944 2.652935613729028 83.44395227637284 H 0.0 **** 0.06
20324 H 151.30693523851397 2.6978389369435476 85.21446384919182 H 0.0 **** 0.06
20325 H 151.63656304968936 4.1562717991400575 84.24919167321775 H 0.0 **** 0.06
20326 C 151.80037606764296 148.7620025464477 96.15824228891977 C 0.0 **** -0.24
20327 H 150.92300068467253 149.40036553008895 96.04941431775127 H 0.0 **** 0.06
20328 H 152.5299648090385 149.01396185583747 95.38739328635371 H 0.0 **** 0.06
20329 H 151.50539590612982 147.71834809517588 96.05175078368988 H 0.0 **** 0.06
20330 H 152.24255768710412 148.91699467334774 97.1421966626716 H 0.0 **** 0.06
20331 C 63.28841101900076 110.39932844395427 32.65634154588241 C 0.0 **** -0.24
20332 H 63.660577187162005 111.41522217069256 32.78559177411151 H 0.0 **** 0.06
20333 H 63.78565170355773 109.73728848376798 33.36478359678236 H 0.0 **** 0.06
20334 H 63.4939276747923 110.06400286447452 31.63984067548867 H 0.0 **** 0.06
20335 H 62.21342162453027 110.38103251667535 32.83417970469537 H 0.0 **** 0.06
20336 C 86.09501995858766 144.20678266689427 2.3815849534323448 C 0.0 **** -0.24
20337 H 86.92546590182032 144.02542081954408 1.6997127046927005 H 0.0 **** 0.06
20338 H 86.42632388463464 144.05095744444296 3.408118228463735 H 0.0 **** 0.06
20339 H 85.28191643052061 143.51882214693723 2.153111098469772 H 0.0 **** 0.06
20340 H 85.74629320587452 145.23325788255153 2.26334082032605 H 0.0 **** 0.06
20341 C 177.1428697243665 82.37011590502789 102.57371643030184 C 0.0 **** -0.24
20342 H 177.20597123851329 81.61795556368895 103.35915410886146 H 0.0 **** 0.06
20343 H 177.9551485841494 82.22181626485576 101.86180516730214 H 0.0 **** 0.06
20344 H 177.22241713992722 83.36402551599963 103.01536706737436 H 0.0 **** 0.06
20345 H 176.18646716061082 82.27754729697477 102.05876054794454 H 0.0 **** 0.06
20346 C 172.51272930214373 64.66448523011235 24.704003665913604 C 0.0 **** -0.24
20347 H 171.96098246628864 65.14931493012533 25.509508451607843 H 0.0 **** 0.06
20348 H 172.6241313916856 65.35906439711549 23.870850774490634 H 0.0 **** 0.06
20349 H 171.96620577632285 63.781010805266106 24.370807939216775 H 0.0 **** 0.06
20350 H 173.49728893374692 64.3677552676366 25.065041082000988 H 0.0 **** 0.06
20351 C 110.15913292264467 152.11476950019716 147.85121609419764 C 0.0 **** -0.24
20352 H 109.64621835105355 151.16199514539605 147.71988812902552 H 0.0 **** 0.06
20353 H 110.43246843069774 152.51700603572047 146.8750747807601 H 0.0 **** 0.06
20354 H 111.05841492702443 151.96384269345137 148.44715258609887 H 0.0 **** 0.06
20355 H 109.49848460963825 152.81547166266438 148.36115984986304 H 0.0 **** 0.06
20356 C 111.67900102449141 88.65951848149734 144.13208229963914 C 0.0 **** -0.24
20357 H 112.36649043426792 89.49984489428476 144.2318280283235 H 0.0 **** 0.06
20358 H 111.07432383007455 88.57619845837104 145.03548345225929 H 0.0 **** 0.06
20359 H 112.24791986585552 87.74034756382429 143.99038349185668 H 0.0 **** 0.06
20360 H 111.02897331366347 88.82163609116662 143.27208216776054 H 0.0 **** 0.06
20361 C 23.809454296445438 121.47342908881734 34.150762038911324 C 0.0 **** -0.24
20362 H 24.765159087985154 121.75960255759048 33.71014940557332 H 0.0 **** 0.06
20363 H 23.982554844578658 120.77330310379062 34.96835618080861 H 0.0 **** 0.06
20364 H 23.18748200362745 120.9998016303403 33.39139265998186 H 0.0 **** 0.06
20365 H 23.305660807890547 122.36138353810645 34.5318766748135 H 0.0 **** 0.06
20366 C 78.57789466194941 26.789153487905054 51.747815788707044 C 0.0 **** -0.24
20367 H 78.68761045466886 27.431475423955476 50.8741835249665 H 0.0 **** 0.06
20368 H 78.13586450045096 27.360069165699485 52.564969392658895 H 0.0 **** 0.06
20369 H 79.55708353275958 26.41878699188038 52.05147872583075 H 0.0 **** 0.06
20370 H 77.93136680962743 25.947638709459795 51.50083207784303 H 0.0 **** 0.06
20371 C 9.44847919777056 22.70501118643503 2.0597354110577015 C 0.0 **** -0.24
20372 H 8.728877360200457 23.472472809129727 2.343501507741024 H 0.0 **** 0.06
20373 H 8.928510063274416 21.76090239624574 1.8977383401532535 H 0.0 **** 0.06
20374 H 10.181723055384445 22.58378457394565 2.8575567793380756 H 0.0 **** 0.06
20375 H 9.955812247359134 23.003332684130896 1.1420912356210309 H 0.0 **** 0.06
20376 C 70.45098946324492 33.602301352040655 66.30449316676993 C 0.0 **** -0.24
20377 H 70.94916555106562 34.37456339962111 65.71912639553028 H 0.0 **** 0.06
20378 H 71.18478230399654 32.86584639431749 66.63333590489634 H 0.0 **** 0.06
20379 H 69.6948138219023 33.11193437498011 65.69094854312078 H 0.0 **** 0.06
20380 H 69.97514867986564 34.055165913267615 67.17421013035079 H 0.0 **** 0.06
20381 C 23.566136942205063 128.30933173367805 185.0304676807372 C 0.0 **** -0.24
20382 H 22.50686990912037 128.52316205519497 184.88690822860667 H 0.0 **** 0.06
20383 H 23.907051874672064 128.7707158155826 185.95810938875775 H 0.0 **** 0.06
20384 H 24.13521829928979 128.7124601885469 184.19314742806898 H 0.0 **** 0.06
20385 H 23.714019853654847 127.23024452300014 185.08529312364283 H 0.0 **** 0.06
20386 C 170.22535078878934 109.33792788630768 78.72351352430294 C 0.0 **** -0.24
20387 H 170.2418516668474 108.25524849241805 78.85207649086142 H 0.0 **** 0.06
20388 H 169.2961398884804 109.63210335326477 78.23550915847999 H 0.0 **** 0.06
20389 H 171.0724449629108 109.64288318680053 78.10867281299244 H 0.0 **** 0.06
20390 H 170.29208988774928 109.81988236903192 79.69927791746791 H 0.0 **** 0.06
20391 C 38.694304498570034 36.60685714630145 137.77871619356097 C 0.0 **** -0.24
20392 H 39.45538203288464 37.32819126576487 138.0759727051219 H 0.0 **** 0.06
20393 H 38.989924247614795 35.610975742016564 138.10920153808746 H 0.0 **** 0.06
20394 H 38.59160502113335 36.61405625441881 136.69366856830146 H 0.0 **** 0.06
20395 H 37.742202025577456 36.87477984878734 138.2357431580158 H 0.0 **** 0.06
20396 C 10.392934648547055 124.31825208252287 174.1004898584419 C 0.0 **** -0.24
20397 H 9.966056217919231 123.33291906007248 174.28900250240616 H 0.0 **** 0.06
20398 H 10.905554148393264 124.66826969826091 174.99679242666298 H 0.0 **** 0.06
20399 H 9.595864302182918 125.01541541272819 173.8410066572482 H 0.0 **** 0.06
20400 H 11.102857032219163 124.25496113050245 173.27612658012617 H 0.0 **** 0.06
20401 C 29.78836597240806 7.333289532559178 133.66124591813326 C 0.0 **** -0.24
20402 H 28.819049075867753 7.324227185065041 134.1608748008369 H 0.0 **** 0.06
20403 H 29.903299065990268 6.420735141803505 133.07536089620362 H 0.0 **** 0.06
20404 H 30.58065958496495 7.387781745686368 134.40734696707023 H 0.0 **** 0.06
20405 H 29.8487719431684 8.199302744704 133.00236460130418 H 0.0 **** 0.06
20406 C 43.48146295276236 90.35173524470544 48.02439658198392 C 0.0 **** -0.24
20407 H 43.308313442235374 89.57215293748543 48.76553962473065 H 0.0 **** 0.06
20408 H 42.654530077402256 91.06225749297145 48.044509795893305 H 0.0 **** 0.06
20409 H 43.55124975739946 89.90363743089922 47.033092128033786 H 0.0 **** 0.06
20410 H 44.413019608269394 90.87097878830933 48.25468935470701 H 0.0 **** 0.06
20411 C 19.012114847744215 69.71591588846712 58.34453561775575 C 0.0 **** -0.24
20412 H 19.180153021252693 69.52160964587054 59.40336921907931 H 0.0 **** 0.06
20413 H 19.888248048625798 69.40574019158811 57.77451717037707 H 0.0 **** 0.06
20414 H 18.838637353807115 70.78132390449991 58.1940242385362 H 0.0 **** 0.06
20415 H 18.141195863606413 69.15453658021937 58.00536932689681 H 0.0 **** 0.06
20416 C 166.06954435426982 168.72925892274088 171.26999096022635 C 0.0 **** -0.24
20417 H 166.18862773800444 168.39600870353217 170.2397192642178 H 0.0 **** 0.06
20418 H 165.18693623636204 168.25700278634594 171.70404564861047 H 0.0 **** 0.06
20419 H 165.94852121639227 169.8117877515946 171.29036420402505 H 0.0 **** 0.06
20420 H 166.95092714267656 168.45098902169607 171.84648776769856 H 0.0 **** 0.06
20421 C 125.32686133988226 173.45634985546093 3.410646615180667 C 0.0 **** -0.24
20422 H 125.93642523305489 174.3377061610579 3.614377637553929 H 0.0 **** 0.06
20423 H 124.27330139305413 173.7338527079829 3.4171228960997837 H 0.0 **** 0.06
20424 H 125.51036229646364 172.70367586138082 4.177386219123832 H 0.0 **** 0.06
20425 H 125.59076024804772 173.05160543042288 2.4331177395653185 H 0.0 **** 0.06
20426 C 131.49494479828616 48.278354484595184 66.92544358103123 C 0.0 **** -0.24
20427 H 132.3390341008136 48.52492108916255 67.56882332914088 H 0.0 **** 0.06
20428 H 131.8451860215522 48.14708152256668 65.90104527586311 H 0.0 **** 0.06
20429 H 130.76421290909292 49.08758364206881 66.95870745250886 H 0.0 **** 0.06
20430 H 131.0301211607465 47.35551940065716 67.27239135228814 H 0.0 **** 0.06
20431 C 64.17215713277315 88.40123314982169 75.23472298432483 C 0.0 **** -0.24
20432 H 63.138672682259 88.69559281510713 75.42318171830806 H 0.0 **** 0.06
20433 H 64.65188473709448 88.13840482207361 76.17763128513434 H 0.0 **** 0.06
20434 H 64.70669732894113 89.23123291674592 74.77288586534678 H 0.0 **** 0.06
20435 H 64.18824660808743 87.54076942042629 74.56623315762943 H 0.0 **** 0.06
20436 C 180.81237222155931 85.4190862815869 154.63901385856252 C 0.0 **** -0.24
20437 H 180.38020603578605 84.76565545957348 155.39823251126603 H 0.0 **** 0.06
20438 H 180.22321519442715 86.33411080443837 154.5704390285367 H 0.0 **** 0.06
20439 H 180.80541055358412 84.90925738385734 153.67521075993494 H 0.0 **** 0.06
20440 H 181.83820772720722 85.66581631041394 154.91303060317165 H 0.0 **** 0.06
20441 C 64.65549915326423 117.36983198962405 181.17643101254336 C 0.0 **** -0.24
20442 H 65.57393481665599 117.44234539681612 180.59375519706964 H 0.0 **** 0.06
20443 H 64.16306159450116 116.42143340862712 180.9613130247415 H 0.0 **** 0.06
20444 H 63.992459591806835 118.19317962079494 180.91108675093875 H 0.0 **** 0.06
20445 H 64.89437172869191 117.42359527332012 182.23849916536417 H 0.0 **** 0.06
20446 C 91.93257258408 91.87111269832054 148.6772387938147 C 0.0 **** -0.24
20447 H 91.62513511197345 92.91720413000435 148.68342743989336 H 0.0 **** 0.06
20448 H 91.63412749822298 91.41086116623656 147.7345779555645 H 0.0 **** 0.06
20449 H 91.45407054948991 91.34726337669456 149.50489153590976 H 0.0 **** 0.06
20450 H 93.01515795363564 91.8096166596088 148.78533829501683 H 0.0 **** 0.06
20451 C 174.660634435909 77.78706503455737 166.47084693354012 C 0.0 **** -0.24
20452 H 174.97271713360507 78.79895326795364 166.21138408592748 H 0.0 **** 0.06
20453 H 175.0335439420775 77.53595692758257 167.46289659812106 H 0.0 **** 0.06
20454 H 175.06432080741686 77.08480218248357 165.74110000670507 H 0.0 **** 0.06
20455 H 173.5724315514301 77.7300746362987 166.46546881764516 H 0.0 **** 0.06
20456 C 45.617310607860816 161.83720985106302 125.43020830538676 C 0.0 **** -0.24
20457 H 46.17649718187812 162.76974497956056 125.35672386401764 H 0.0 **** 0.06
20458 H 45.35877023769007 161.64892668578017 126.47295742544658 H 0.0 **** 0.06
20459 H 46.227021377055166 161.0165247519392 125.05361424765094 H 0.0 **** 0.06
20460 H 44.70503517602987 161.9137412807995 124.83809441870689 H 0.0 **** 0.06
20461 C 181.77751333497594 137.25233674023872 61.02458141512599 C 0.0 **** -0.24
20462 H 181.74412330788118 136.23680199519322 60.62937303514789 H 0.0 **** 0.06
20463 H 181.91634937233695 137.9570646208275 60.20316763697684 H 0.0 **** 0.06
20464 H 182.60828118779295 137.34238876858996 61.72482835956427 H 0.0 **** 0.06
20465 H 180.84285407945336 137.4738270503285 61.539527504283896 H 0.0 **** 0.06
20466 C 36.134341469646245 158.63790221887535 173.2412957380923 C 0.0 **** -0.24
20467 H 36.50540301812046 158.24706648595642 174.18898879583412 H 0.0 **** 0.06
20468 H 36.377614169942944 157.9394971760781 172.44057596642398 H 0.0 **** 0.06
20469 H 36.601939295170894 159.60120850455593 173.03829665023747 H 0.0 **** 0.06
20470 H 35.0531988632722 158.76377186087234 173.29886186752643 H 0.0 **** 0.06
20471 C 4.560979424133905 25.949333053833357 105.39675493070168 C 0.0 **** -0.24
20472 H 4.919596896445114 25.594741279479393 106.36292496673171 H 0.0 **** 0.06
20473 H 4.220544608721696 25.100725259464866 104.80290787511298 H 0.0 **** 0.06
20474 H 5.37191057499345 26.45765415367967 104.873191428276 H 0.0 **** 0.06
20475 H 3.734432980149137 26.643024608953624 105.54800421098211 H 0.0 **** 0.06
20476 C 131.3428668523718 82.40119048237875 46.927200052472585 C 0.0 **** -0.24
20477 H 131.91149878275309 83.25643427721525 47.291576408498486 H 0.0 **** 0.06
20478 H 131.98684150747079 81.52172123761305 46.90133748257722 H 0.0 **** 0.06
20479 H 130.97446755412693 82.61196529550384 45.922853838736955 H 0.0 **** 0.06
20480 H 130.4988914156898 82.2155725703792 47.5919938784121 H 0.0 **** 0.06
20481 C 2.3214933127450337 49.85167545423619 20.51861220607026 C 0.0 **** -0.24
20482 H 2.859662633866556 48.92337426042434 20.327452498284345 H 0.0 **** 0.06
20483 H 2.453757589227017 50.139986085403166 21.562102282021215 H 0.0 **** 0.06
20484 H 1.261080868301832 49.705661707870746 20.313778644128774 H 0.0 **** 0.06
20485 H 2.7123769889589227 50.63699061372512 19.871955879573107 H 0.0 **** 0.06
20486 C 60.89473070988693 38.39056646668803 119.2927558893931 C 0.0 **** -0.24
20487 H 60.64176007862069 38.34378330202817 120.35215032408831 H 0.0 **** 0.06
20488 H 61.847527658034366 37.888243425707415 119.1253136503023 H 0.0 **** 0.06
20489 H 60.973446900085094 39.43307751629632 118.98351512600198 H 0.0 **** 0.06
20490 H 60.115439704780826 37.89750334180336 118.71156861364085 H 0.0 **** 0.06
20491 C 145.96586539098723 3.4826311780281003 32.74192312707861 C 0.0 **** -0.24
20492 H 145.25355605766543 2.6942143619851606 32.98357925322345 H 0.0 **** 0.06
20493 H 146.04939791856435 3.577180034768645 31.659207469146693 H 0.0 **** 0.06
20494 H 146.939588280917 3.2331489379018876 33.162562746310954 H 0.0 **** 0.06
20495 H 145.6184470182587 4.426417523793759 33.16364602215408 H 0.0 **** 0.06
20496 C 10.477330796452236 33.757351778528886 129.64432906423139 C 0.0 **** -0.24
20497 H 11.29369014196817 33.298390237631 129.0858085997852 H 0.0 **** 0.06
20498 H 10.876875103126224 34.24907552514921 130.5315502763766 H 0.0 **** 0.06
20499 H 9.765089748193532 32.989135295381914 129.94397963735616 H 0.0 **** 0.06
20500 H 9.975838827693934 34.492379420509764 129.0156514786077 H 0.0 **** 0.06
20501 C 67.09262639165644 14.765006006339974 53.123002706298806 C 0.0 **** -0.24
20502 H 67.96152605322683 15.146986618875559 53.65854126045734 H 0.0 **** 0.06
20503 H 66.49097313133842 15.601234218520943 52.76546652729279 H 0.0 **** 0.06
20504 H 66.49556099019577 14.146630371712234 53.79281747912516 H 0.0 **** 0.06
20505 H 67.42349624124284 14.166734335466003 52.273617909885004 H 0.0 **** 0.06
20506 C 25.50625378673469 92.5309910213157 100.15795823504244 C 0.0 **** -0.24
20507 H 25.997194576218078 93.50477641261115 100.17208445918449 H 0.0 **** 0.06
20508 H 25.31231512254871 92.2383378656351 99.12640248278312 H 0.0 **** 0.06
20509 H 24.563839390864032 92.59219646903624 100.70247211904756 H 0.0 **** 0.06
20510 H 26.15176611324459 91.79159190486929 100.63146972803126 H 0.0 **** 0.06
20511 C 1.0467720311831599 119.0605892003634 157.9434598216148 C 0.0 **** -0.24
20512 H 1.4251430198807427 119.6214799972608 158.7973094807837 H 0.0 **** 0.06
20513 H 0.6087168600285295 118.12350289272293 158.28932008291812 H 0.0 **** 0.06
20514 H 1.8660272692173905 118.8481181936787 157.25689498169186 H 0.0 **** 0.06
20515 H 0.28622013475581554 119.65024174785874 157.43005833248088 H 0.0 **** 0.06
20516 C 74.3651686470039 43.92001098689039 13.994754992213018 C 0.0 **** -0.24
20517 H 74.29106350969617 44.660849759628434 14.790647382335635 H 0.0 **** 0.06
20518 H 75.3532785153277 43.97486553617745 13.538069952445227 H 0.0 **** 0.06
20519 H 73.60408773627407 44.12150203048344 13.23994799281877 H 0.0 **** 0.06
20520 H 74.2104539958045 42.923676909801316 14.410090003920686 H 0.0 **** 0.06
20521 C 13.698015337010055 102.34308369887317 168.8476210663783 C 0.0 **** -0.24
20522 H 14.604032020891992 101.86430496495309 168.4765549700167 H 0.0 **** 0.06
20523 H 13.571089466043517 103.30899994397815 168.3585024714971 H 0.0 **** 0.06
20524 H 13.780843517206804 102.4893808504386 169.92526063298718 H 0.0 **** 0.06
20525 H 12.83799963475353 101.70983679035739 168.63268461897766 H 0.0 **** 0.06
20526 C 96.68544002955038 86.47535025024796 114.91158350631287 C 0.0 **** -0.24
20527 H 97.3303969229036 87.27166930458615 114.54013104387172 H 0.0 **** 0.06
20528 H 95.66590170617279 86.64119215718897 114.56088067189438 H 0.0 **** 0.06
20529 H 96.69978713292441 86.47600373258807 116.00146565384352 H 0.0 **** 0.06
20530 H 97.04484720801857 85.51472947355536 114.54314686722984 H 0.0 **** 0.06
20531 C 86.24426175572722 169.40933286832714 144.34900534680403 C 0.0 **** -0.24
20532 H 85.55987991958051 169.23395193497478 143.51906716257204 H 0.0 **** 0.06
20533 H 86.86902099897384 170.27515778912274 144.1275861064363 H 0.0 **** 0.06
20534 H 86.87579868055252 168.5318925182048 144.49053599480385 H 0.0 **** 0.06
20535 H 85.67289241741668 169.5961538944461 145.25753895346895 H 0.0 **** 0.06
20536 C 59.694290444650164 55.1319472994047 110.0526902612824 C 0.0 **** -0.24
20537 H 60.50407824375867 55.83296715889037 109.84948285604189 H 0.0 **** 0.06
20538 H 59.15893828541914 55.44682043620834 110.94904753590414 H 0.0 **** 0.06
20539 H 60.1069269711038 54.135385497788434 110.20591886728748 H 0.0 **** 0.06
20540 H 59.007510532073695 55.115745706596684 109.20665881191591 H 0.0 **** 0.06
20541 C 23.63206926976443 67.97404544678137 51.27563041182442 C 0.0 **** -0.24
20542 H 23.80511536258939 68.88047227106722 51.85715329638357 H 0.0 **** 0.06
20543 H 22.887193394745736 67.35764259795091 51.77856362101171 H 0.0 **** 0.06
20544 H 24.565043133218524 67.41812153254946 51.18424809132239 H 0.0 **** 0.06
20545 H 23.271015846020532 68.24452572915084 50.282669566883214 H 0.0 **** 0.06
20546 C 184.504689539933 48.71416774164766 54.18633205959843 C 0.0 **** -0.24
20547 H 185.50058720623042 48.989958878389075 54.533472459485935 H 0.0 **** 0.06
20548 H 184.37382445727417 47.63517401640024 54.278241124513315 H 0.0 **** 0.06
20549 H 184.39066149582328 49.006275487110486 53.14195566342626 H 0.0 **** 0.06
20550 H 183.75522737801046 49.22443871346047 54.79026527970325 H 0.0 **** 0.06
20551 C 92.04420122424519 166.50160629832226 115.17227537863045 C 0.0 **** -0.24
20552 H 91.63025875862296 165.81316878746938 114.43616413119207 H 0.0 **** 0.06
20553 H 91.91640141935478 166.08430037891202 116.17126103983935 H 0.0 **** 0.06
20554 H 91.52346714622682 167.4575178488255 115.10906532246946 H 0.0 **** 0.06
20555 H 93.10457430895748 166.6525256048662 114.97323866151311 H 0.0 **** 0.06
20556 C 35.81713118726674 151.60926681465517 93.62998788452524 C 0.0 **** -0.24
20557 H 35.42341709768897 152.52202087671813 94.07567450995964 H 0.0 **** 0.06
20558 H 36.88194131463615 151.73252879968146 93.43146522357199 H 0.0 **** 0.06
20559 H 35.29452004006117 151.4066829485686 92.69577340165188 H 0.0 **** 0.06
20560 H 35.669989929785515 150.77625716649297 94.31691125926602 H 0.0 **** 0.06
20561 C 42.57618373941912 172.117634751624 108.20287864608372 C 0.0 **** -0.24
20562 H 41.95329527193627 172.7582956468138 108.82809698245063 H 0.0 **** 0.06
20563 H 43.568607489484975 172.55930219041335 108.10716886299929 H 0.0 **** 0.06
20564 H 42.12300510104086 172.02257267642307 107.21604903048848 H 0.0 **** 0.06
20565 H 42.658981755416704 171.1331033231951 108.66109766497755 H 0.0 **** 0.06
20566 C 126.52525489489169 92.01781107984613 165.72074315848772 C 0.0 **** -0.24
20567 H 126.2724315121932 90.96475697109491 165.84231508193204 H 0.0 **** 0.06
20568 H 125.91787938275662 92.61757332518403 166.39958896785572 H 0.0 **** 0.06
20569 H 126.32770994741581 92.32118838909759 164.6923888533703 H 0.0 **** 0.06
20570 H 127.58034539333882 92.16702953570336 165.94799023009085 H 0.0 **** 0.06
20571 C 61.295214319406426 89.97089020594336 172.78968281290122 C 0.0 **** -0.24
20572 H 61.433945906706356 90.03790264446155 171.70998550479558 H 0.0 **** 0.06
20573 H 60.23797293922901 90.09008456744766 173.02787967756228 H 0.0 **** 0.06
20574 H 61.86948668579706 90.7579603990506 173.2787504281415 H 0.0 **** 0.06
20575 H 61.639901639796676 88.99797545908552 173.13995543354835 H 0.0 **** 0.06
20576 C 40.12928105468109 71.35194182883208 14.24548536272107 C 0.0 **** -0.24
20577 H 40.90773681173789 70.9111277374929 14.869193599450256 H 0.0 **** 0.06
20578 H 39.47181145656623 70.56417207694074 13.875984428587117 H 0.0 **** 0.06
20579 H 40.58833323010708 71.86776649726733 13.402182705625364 H 0.0 **** 0.06
20580 H 39.55004546519331 72.06263821046599 14.834897905817257 H 0.0 **** 0.06
20581 C 57.80717869096685 130.63729442556462 11.965925677101367 C 0.0 **** -0.24
20582 H 57.01551451190852 130.15422504826665 11.393266820831151 H 0.0 **** 0.06
20583 H 58.25645667718737 129.91337833151738 12.645803713238372 H 0.0 **** 0.06
20584 H 57.38893294293763 131.4648751031129 12.538795712178 H 0.0 **** 0.06
20585 H 58.56881965561939 131.01618037351437 11.28366555951687 H 0.0 **** 0.06
20586 C 6.551652908279891 149.05568645265862 122.09387005242348 C 0.0 **** -0.24
20587 H 6.39870370716892 148.5249964169246 121.15362114092477 H 0.0 **** 0.06
20588 H 6.8268417361405795 148.34409065488285 122.8723242209474 H 0.0 **** 0.06
20589 H 5.630114927211707 149.56550256490007 122.37659725048559 H 0.0 **** 0.06
20590 H 7.348981089356101 149.78816686065363 121.97188004035723 H 0.0 **** 0.06
20591 C 136.76254075397884 87.65397627605853 82.57814266343173 C 0.0 **** -0.24
20592 H 136.85758069511746 86.70122150606 82.05676071735711 H 0.0 **** 0.06
20593 H 136.5660375211997 87.47131582953028 83.63471306306184 H 0.0 **** 0.06
20594 H 135.93706739855787 88.22173571744764 82.1474474719913 H 0.0 **** 0.06
20595 H 137.68731303997487 88.22030875085238 82.47204795203182 H 0.0 **** 0.06
20596 C 26.628082658328765 166.51886723509244 84.09936291992852 C 0.0 **** -0.24
20597 H 26.986804914860272 167.46984304077756 84.49259403791054 H 0.0 **** 0.06
20598 H 26.378779246510987 165.85430786523472 84.92682229981523 H 0.0 **** 0.06
20599 H 27.406657488691508 166.06219909803127 83.48874864209108 H 0.0 **** 0.06
20600 H 25.741030794888275 166.6887863948226 83.48933601222664 H 0.0 **** 0.06
20601 C 124.15046008604287 149.58835065365673 173.52015655130694 C 0.0 **** -0.24
20602 H 123.90096040481058 150.62705985843803 173.30435235486695 H 0.0 **** 0.06
20603 H 124.68627081292846 149.15935811959113 172.67310953572652 H 0.0 **** 0.06
20604 H 123.23436747842317 149.02399829676128 173.69491958713166 H 0.0 **** 0.06
20605 H 124.78027854349756 149.54306830245494 174.4092406921441 H 0.0 **** 0.06
20606 C 41.35003893694001 40.48623013225769 5.447561562074043 C 0.0 **** -0.24
20607 H 41.61292699380678 41.543526170315346 5.402914699421871 H 0.0 **** 0.06
20608 H 40.830488639653964 40.280057302231654 6.383114663730396 H 0.0 **** 0.06
20609 H 42.25653092996646 39.884288602951614 5.392917266570208 H 0.0 **** 0.06
20610 H 40.698883446409596 40.23913311584711 4.608489467687548 H 0.0 **** 0.06
20611 C 167.6827165535434 92.12001499245135 70.65224207529754 C 0.0 **** -0.24
20612 H 168.38329853139294 91.3947469520525 70.2386268914921 H 0.0 **** 0.06
20613 H 166.75136081133354 91.61612701678563 70.91387310185972 H 0.0 **** 0.06
20614 H 167.48235397095652 92.8941585559346 69.91205836675216 H 0.0 **** 0.06
20615 H 168.1139102990909 92.57281748732397 71.54474597069999 H 0.0 **** 0.06
20616 C 59.96212089881587 148.35958346406343 142.4476511682317 C 0.0 **** -0.24
20617 H 61.00040245896531 148.36676654338532 142.11807092932355 H 0.0 **** 0.06
20618 H 59.85829713992385 148.98858805984784 143.33226929509647 H 0.0 **** 0.06
20619 H 59.66488546392668 147.33896666705385 142.69095928651655 H 0.0 **** 0.06
20620 H 59.32534087620654 148.74328595091814 141.65160222137035 H 0.0 **** 0.06
20621 C 23.846567581415513 104.32884504591453 175.26992315388696 C 0.0 **** -0.24
20622 H 23.34137350629888 103.38188104544167 175.46411772212372 H 0.0 **** 0.06
20623 H 24.42854792990778 104.24852853362052 174.3515678274581 H 0.0 **** 0.06
20624 H 24.5104385628608 104.56306069329855 176.10265344423226 H 0.0 **** 0.06
20625 H 23.104808348618008 105.12060841693312 175.1627999552133 H 0.0 **** 0.06
20626 C 95.2647073555804 138.59252966103486 13.529588333497266 C 0.0 **** -0.24
20627 H 94.63218730598363 139.3312600168852 14.024492643928212 H 0.0 **** 0.06
20628 H 95.59130100944945 137.84983174783048 14.257126473514305 H 0.0 **** 0.06
20629 H 96.13437285622574 139.09040232425872 13.100138564276982 H 0.0 **** 0.06
20630 H 94.69827075099276 138.10236217754687 12.737464109631816 H 0.0 **** 0.06
20631 C 35.224274818418095 22.7805712585007 22.959212790707483 C 0.0 **** -0.24
20632 H 35.2356518525892 22.008282941815764 23.727850978655056 H 0.0 **** 0.06
20633 H 35.368394038712665 23.75737933484355 23.42282366092917 H 0.0 **** 0.06
20634 H 34.266097837319265 22.763041883036422 22.440406522462666 H 0.0 **** 0.06
20635 H 36.02756843985499 22.59479229188952 22.245373923983664 H 0.0 **** 0.06
20636 C 112.34460776078451 133.91321899610728 123.25784193660614 C 0.0 **** -0.24
20637 H 113.2735184395069 133.51644170407735 123.6684367664735 H 0.0 **** 0.06
20638 H 111.81744179492851 133.1227954203074 122.7240217730676 H 0.0 **** 0.06
20639 H 112.57078304361308 134.72865320804493 122.57099541492765 H 0.0 **** 0.06
20640 H 111.71889405315174 134.28451204074543 124.06989071072023 H 0.0 **** 0.06
20641 C 131.56348840259892 138.81604916008718 46.99284808067425 C 0.0 **** -0.24
20642 H 132.56422637643368 138.5931385310052 47.36325559807425 H 0.0 **** 0.06
20643 H 130.82942710989414 138.24771659666152 47.565395473986555 H 0.0 **** 0.06
20644 H 131.49531485035487 138.54253705603554 45.93997066302606 H 0.0 **** 0.06
20645 H 131.36462186278317 139.88256846475088 47.10409585417881 H 0.0 **** 0.06
20646 C 148.52014659338053 77.32780000698183 86.47596602114776 C 0.0 **** -0.24
20647 H 148.45480558999645 77.56168874324027 87.53812276665643 H 0.0 **** 0.06
20648 H 147.6474239937345 76.7472934935338 86.17731102228625 H 0.0 **** 0.06
20649 H 149.42422623548998 76.75005037414887 86.28598258869032 H 0.0 **** 0.06
20650 H 148.55438833146798 78.25431425952569 85.90187784583911 H 0.0 **** 0.06
20651 C 176.33428167397147 176.61955368769287 174.53760506465397 C 0.0 **** -0.24
20652 H 176.14648873522066 175.55376468135358 174.40864397764915 H 0.0 **** 0.06
20653 H 177.40882205189556 176.79499344663648 174.59169051860528 H 0.0 **** 0.06
20654 H 175.86373303149148 176.96129629280247 175.45967357504443 H 0.0 **** 0.06
20655 H 175.91759868640614 177.1666695480447 173.69229454666467 H 0.0 **** 0.06
20656 C 90.95034601121877 127.20533420993705 33.45812110686725 C 0.0 **** -0.24
20657 H 90.8735678135523 127.59168339972017 34.47447231380261 H 0.0 **** 0.06
20658 H 91.91803981947105 127.48118746887674 33.03806389911597 H 0.0 **** 0.06
20659 H 90.15405213929351 127.6310007523614 32.84746536976678 H 0.0 **** 0.06
20660 H 90.85641608442687 126.11970128931738 33.47435943940377 H 0.0 **** 0.06
20661 C 26.814529870734106 4.119426244903792 22.705767821195593 C 0.0 **** -0.24
20662 H 27.036471439041605 4.216938309895809 21.643287850089024 H 0.0 **** 0.06
20663 H 26.0330825230414 3.3719590846837306 22.84704867864761 H 0.0 **** 0.06
20664 H 26.47499869704626 5.079393022263972 23.095658510659717 H 0.0 **** 0.06
20665 H 27.71464358894781 3.8098934202062864 23.23834563363812 H 0.0 **** 0.06
20666 C 121.5630776692903 10.202299567404395 150.14375756993292 C 0.0 **** -0.24
20667 H 122.00432833130424 10.250268879288797 149.14866805663524 H 0.0 **** 0.06
20668 H 120.54914868829707 9.807067199176885 150.0730271766682 H 0.0 **** 0.06
20669 H 121.5336821316044 11.202185152279583 150.5773565737646 H 0.0 **** 0.06
20670 H 122.16438918042195 9.549205403754769 150.77642165921384 H 0.0 **** 0.06
20671 C 120.64995180180456 157.2872749924099 114.33302519909002 C 0.0 **** -0.24
20672 H 120.38155747855181 157.47249853781582 115.37363421120124 H 0.0 **** 0.06
20673 H 121.72545728874711 157.41669397910798 114.20700509230183 H 0.0 **** 0.06
20674 H 120.12195969133533 157.99258592357802 113.69101648217243 H 0.0 **** 0.06
20675 H 120.37086443432467 156.26918956223517 114.06167365706769 H 0.0 **** 0.06
20676 C 69.78644976280503 40.28454692985608 143.98428136804387 C 0.0 **** -0.24
20677 H 69.00255731803225 40.50850871789277 143.26060248755905 H 0.0 **** 0.06
20678 H 70.39422708268506 41.17483712390475 144.1474790286307 H 0.0 **** 0.06
20679 H 70.41396427519064 39.47948795156928 143.60343768273762 H 0.0 **** 0.06
20680 H 69.332255626191 39.97572988400837 144.92582588811234 H 0.0 **** 0.06
20681 C 76.9634479105931 175.57927796618873 110.36225509117513 C 0.0 **** -0.24
20682 H 76.35972553977881 174.7899860889363 110.81084957338187 H 0.0 **** 0.06
20683 H 76.33390076509237 176.44593853071748 110.15850465185675 H 0.0 **** 0.06
20684 H 77.39851227393578 175.21819419689433 109.43112199694853 H 0.0 **** 0.06
20685 H 77.75963854129441 175.86166188480738 111.05122183280885 H 0.0 **** 0.06
20686 C 41.46086019644872 181.99022980029304 162.83110617544526 C 0.0 **** -0.24
20687 H 41.66476366733376 181.77953351028216 163.87997259279328 H 0.0 **** 0.06
20688 H 42.04474935494001 182.85486825625236 162.51394977977426 H 0.0 **** 0.06
20689 H 40.3991299904432 182.20094630726868 162.70211822362467 H 0.0 **** 0.06
20690 H 41.73541840418635 181.12571430565202 162.22677339420812 H 0.0 **** 0.06
20691 C 171.07155945754207 160.054577086149 125.08925796961762 C 0.0 **** -0.24
20692 H 171.63154244354442 159.13156710714833 125.2389075364689 H 0.0 **** 0.06
20693 H 170.00333625763216 159.84114899881178 125.12485298916806 H 0.0 **** 0.06
20694 H 171.3258213570062 160.48003218290447 124.11756910310214 H 0.0 **** 0.06
20695 H 171.3277023638255 160.76608741535884 125.8746841228832 H 0.0 **** 0.06
20696 C 48.163951231195654 25.433534100079726 158.69347185406798 C 0.0 **** -0.24
20697 H 47.43187316425649 24.65968899663568 158.92747155130007 H 0.0 **** 0.06
20698 H 47.748325126965796 26.111026763588143 157.9470771769753 H 0.0 **** 0.06
20699 H 49.06948580137026 24.970970825496693 158.3016801919073 H 0.0 **** 0.06
20700 H 48.40269091277213 25.991754402652816 159.5985258923699 H 0.0 **** 0.06
20701 C 134.92231767069404 27.01627024606367 105.26994443746526 C 0.0 **** -0.24
20702 H 133.98198924091156 26.862338283367365 104.73991540378199 H 0.0 **** 0.06
20703 H 135.20742940843508 28.06636582500144 105.20596838856079 H 0.0 **** 0.06
20704 H 135.69873188985264 26.400306951123014 104.81593502232892 H 0.0 **** 0.06
20705 H 134.79995433237644 26.735508364272974 106.31587910770833 H 0.0 **** 0.06
20706 C 54.19431895737435 1.2288122532575585 60.996953446275825 C 0.0 **** -0.24
20707 H 53.330609026371576 1.8901379602565669 60.935652525289754 H 0.0 **** 0.06
20708 H 54.74015431200729 1.2568607877851434 60.05350210868977 H 0.0 **** 0.06
20709 H 53.859127034131916 0.21085850602833034 61.19380843698809 H 0.0 **** 0.06
20710 H 54.84779654331743 1.558256353932876 61.80513969212254 H 0.0 **** 0.06
20711 C 96.54214981596364 43.23285521581522 2.835939651148493 C 0.0 **** -0.24
20712 H 96.35344348779985 44.2423071323299 3.200971303176665 H 0.0 **** 0.06
20713 H 96.90187532997346 42.611242597775174 3.6566458726794195 H 0.0 **** 0.06
20714 H 97.29573600454349 43.26674193226529 2.0487523005524224 H 0.0 **** 0.06
20715 H 95.61938721074604 42.811750565364946 2.437856254178655 H 0.0 **** 0.06
20716 C 82.07352666489214 73.81169450347411 37.9451166485141 C 0.0 **** -0.24
20717 H 81.00151153180042 74.00526132396845 37.955783017488955 H 0.0 **** 0.06
20718 H 82.5964277905714 74.68420124470724 37.552835149766054 H 0.0 **** 0.06
20719 H 82.28033274810446 72.94849637014183 37.31331718366212 H 0.0 **** 0.06
20720 H 82.41667064365487 73.60827221770832 38.95994617562167 H 0.0 **** 0.06
20721 C 155.626464605555 167.1993482025673 20.47642853524613 C 0.0 **** -0.24
20722 H 155.06764535436895 167.8653366493548 19.818678730852753 H 0.0 **** 0.06
20723 H 156.42084839380595 166.712670191647 19.911742568548306 H 0.0 **** 0.06
20724 H 154.95386753360907 166.44424896040414 20.88466217430266 H 0.0 **** 0.06
20725 H 156.061508150664 167.77737901359393 21.292367800279067 H 0.0 **** 0.06
20726 C 24.61338223553136 59.93926750526194 118.02899444024787 C 0.0 **** -0.24
20727 H 24.34719009348464 60.81494419056796 117.4371300585557 H 0.0 **** 0.06
20728 H 25.596289206699538 59.58019169535848 117.72422927232874 H 0.0 **** 0.06
20729 H 23.87399405374623 59.15453727873006 117.86886339290577 H 0.0 **** 0.06
20730 H 24.63543197163267 60.207843871590796 119.0851137069355 H 0.0 **** 0.06
20731 C 87.31471847847837 125.66181699749615 25.24577882286988 C 0.0 **** -0.24
20732 H 87.94732317049983 124.77444618129988 25.21908224983906 H 0.0 **** 0.06
20733 H 86.59408035511262 125.61890265918561 24.42847016394734 H 0.0 **** 0.06
20734 H 87.93365377720602 126.55217555646374 25.138946832388527 H 0.0 **** 0.06
20735 H 86.78421837936901 125.70066424681443 26.197436803136966 H 0.0 **** 0.06
20736 C 52.17475202717394 24.144831541480585 65.62605876570103 C 0.0 **** -0.24
20737 H 51.985331461215935 25.215089122383574 65.54385826329758 H 0.0 **** 0.06
20738 H 53.17399374772475 23.983639862172367 66.03002482691716 H 0.0 **** 0.06
20739 H 52.10255908775942 23.68671492115726 64.63923774617166 H 0.0 **** 0.06
20740 H 51.43690595731256 23.694842017773624 66.29093694283301 H 0.0 **** 0.06
20741 C 29.42841650779924 0.35221814951371755 0.7263035472124244 C 0.0 **** -0.24
20742 H 29.55302979042594 0.6270598251086241 -0.3206223919586506 H 0.0 **** 0.06
20743 H 28.782471527370816 1.0803888911011867 1.2181244981694803 H 0.0 **** 0.06
20744 H 30.40231790654694 0.3412109143790971 1.2167179581541632 H 0.0 **** 0.06
20745 H 28.977629321584686 -0.6373861053907248 0.7907524376649775 H 0.0 **** 0.06
20746 C 176.867162363031 107.74533212803976 122.05569813405442 C 0.0 **** -0.24
20747 H 177.45174649122671 107.18529085866146 121.32488381372839 H 0.0 **** 0.06
20748 H 177.5395197419114 108.225817295821 122.76565369166751 H 0.0 **** 0.06
20749 H 176.20246928993 107.06338150220722 122.58653505773584 H 0.0 **** 0.06
20750 H 176.27511161359632 108.50341447207359 121.5430301796432 H 0.0 **** 0.06
20751 C 61.446339772226764 106.20988762040763 41.19810700307448 C 0.0 **** -0.24
20752 H 61.68874141454786 106.16105652413258 42.259485032002374 H 0.0 **** 0.06
20753 H 62.261434150562465 106.69504745260842 40.66084778968889 H 0.0 **** 0.06
20754 H 60.528806319670494 106.7816976682462 41.05994408678703 H 0.0 **** 0.06
20755 H 61.30649435001364 105.20003386115899 40.810406029546186 H 0.0 **** 0.06
20756 C 142.97020858414996 153.45972565760601 5.886219496427856 C 0.0 **** -0.24
20757 H 143.9090814601349 153.50330438646742 5.334051057871918 H 0.0 **** 0.06
20758 H 143.1763327371266 153.4963092785855 6.956102127682158 H 0.0 **** 0.06
20759 H 142.45096585286797 152.53134054337204 5.647256232329951 H 0.0 **** 0.06
20760 H 142.34480983695295 154.30806266539759 5.606540905703973 H 0.0 **** 0.06
20761 C 66.5528774097609 141.948748555872 22.53656104599723 C 0.0 **** -0.24
20762 H 65.85928032130153 141.11268586425422 22.445739113999778 H 0.0 **** 0.06
20763 H 67.12852462317625 141.84373194540007 23.45654809865097 H 0.0 **** 0.06
20764 H 65.99379341824746 142.8832287163023 22.561982359683768 H 0.0 **** 0.06
20765 H 67.23017628951705 141.95294071138153 21.68234384595526 H 0.0 **** 0.06
20766 C 63.198695456098946 20.65835292162842 144.27388367743387 C 0.0 **** -0.24
20767 H 63.04222276140514 19.581348281334044 144.3400326081234 H 0.0 **** 0.06
20768 H 62.78006134626753 21.02862919714076 143.33835371421333 H 0.0 **** 0.06
20769 H 64.26746846979461 20.871643551525267 144.30458759698143 H 0.0 **** 0.06
20770 H 62.70652032317879 21.148774239158683 145.11385625915588 H 0.0 **** 0.06
20771 C 91.7868375849646 33.95328333185242 31.384418709911827 C 0.0 **** -0.24
20772 H 91.28278603360853 33.246595358306195 30.726103835397325 H 0.0 **** 0.06
20773 H 91.40175374910886 34.95741255865971 31.201786994780477 H 0.0 **** 0.06
20774 H 92.8583525226842 33.93405606301212 31.185981293095935 H 0.0 **** 0.06
20775 H 91.6038065613043 33.676830533802956 32.42258866165008 H 0.0 **** 0.06
20776 C 92.22288575009192 75.40633462003673 13.001684851382379 C 0.0 **** -0.24
20777 H 93.14420009120629 75.56159478455811 12.439516237369787 H 0.0 **** 0.06
20778 H 91.97488234471273 76.31569890502269 13.548609213902239 H 0.0 **** 0.06
20779 H 92.36153170055842 74.58523592919211 13.705862125176964 H 0.0 **** 0.06
20780 H 91.41369377583742 75.16255027082015 12.313887000999557 H 0.0 **** 0.06
20781 C 70.29262196702214 136.19726328472467 78.97668169352228 C 0.0 **** -0.24
20782 H 70.69117655222433 136.20783553298224 77.96210698519651 H 0.0 **** 0.06
20783 H 70.32204556506412 135.18005654100756 79.36669585398748 H 0.0 **** 0.06
20784 H 69.26298469294971 136.55462337627245 78.96571770702846 H 0.0 **** 0.06
20785 H 70.8963945637724 136.84779041514554 79.60997821511279 H 0.0 **** 0.06
20786 C 143.53215308201848 139.43539258820232 96.24466988250542 C 0.0 **** -0.24
20787 H 143.68544288860542 140.24185113499482 95.52652627024604 H 0.0 **** 0.06
20788 H 142.46395075284732 139.28240800827695 96.39586461178253 H 0.0 **** 0.06
20789 H 144.0000617026161 139.700335634618 97.19323779690318 H 0.0 **** 0.06
20790 H 143.98048898246685 138.51880804040775 95.86211918665371 H 0.0 **** 0.06
20791 C 0.519572096865403 28.426946569140554 25.949244970289158 C 0.0 **** -0.24
20792 H 0.9829091457244772 28.639948270937126 26.91285351608275 H 0.0 **** 0.06
20793 H 1.2702068720857653 28.02937695329335 25.265522643637837 H 0.0 **** 0.06
20794 H 0.10047653290195058 29.34441732965351 25.537103424043977 H 0.0 **** 0.06
20795 H -0.2751815635971866 27.692708848468286 26.083550475057393 H 0.0 **** 0.06
20796 C 122.8499731402491 106.6843092639712 97.78401251459296 C 0.0 **** -0.24
20797 H 121.83901146336298 106.31636505257636 97.60683766855244 H 0.0 **** 0.06
20798 H 122.84508054640749 107.35969584015665 98.63976271633489 H 0.0 **** 0.06
20799 H 123.20142400680287 107.21788697136817 96.90120989312207 H 0.0 **** 0.06
20800 H 123.51214496079056 105.84318153550687 97.98814721583521 H 0.0 **** 0.06
20801 C 144.0920287245596 153.73432775281344 61.45495492437773 C 0.0 **** -0.24
20802 H 144.64335781986443 154.38389632488116 62.13514039414187 H 0.0 **** 0.06
20803 H 143.4478070756514 153.0696156438045 62.03080442853778 H 0.0 **** 0.06
20804 H 144.79505456024512 153.1417107756253 60.86820608903351 H 0.0 **** 0.06
20805 H 143.48281668942917 154.34231392405238 60.785985657440634 H 0.0 **** 0.06
20806 C 115.42065740621695 128.2031445382737 153.01135426332343 C 0.0 **** -0.24
20807 H 115.12620377619191 127.18794919144379 152.7458531829567 H 0.0 **** 0.06
20808 H 114.83024990536671 128.54050025904542 153.86391364080401 H 0.0 **** 0.06
20809 H 115.24748401848314 128.86528203627518 152.16299391804404 H 0.0 **** 0.06
20810 H 116.47851905766129 128.21756813946217 153.27381197585822 H 0.0 **** 0.06
20811 C 3.020981199205252 58.63551598327939 58.72503907381588 C 0.0 **** -0.24
20812 H 3.80484636939466 59.3237501127158 59.040615580091696 H 0.0 **** 0.06
20813 H 3.309663656298582 57.61558030997037 58.977740495934256 H 0.0 **** 0.06
20814 H 2.8790287145773164 58.717122587269785 57.646702737130454 H 0.0 **** 0.06
20815 H 2.0898171530770355 58.88652417453494 59.23313726672579 H 0.0 **** 0.06
20816 C 111.33880481766452 66.9200270949935 54.055240252921095 C 0.0 **** -0.24
20817 H 111.12729536349015 67.53827968965895 54.92750560028978 H 0.0 **** 0.06
20818 H 110.4183175751567 66.44788793864369 53.712153948685966 H 0.0 **** 0.06
20819 H 112.06434397335563 66.15115306697102 54.32256598855139 H 0.0 **** 0.06
20820 H 111.74725611057467 67.54299988133138 53.25972544862648 H 0.0 **** 0.06
20821 C 2.8149928332138785 22.312917596128557 90.9940768797324 C 0.0 **** -0.24
20822 H 3.0533395261412792 21.93368119663451 90.00031384320238 H 0.0 **** 0.06
20823 H 3.319892183731156 21.70538000466975 91.74595859576948 H 0.0 **** 0.06
20824 H 1.7374133150977542 22.26622701418158 91.15210453730907 H 0.0 **** 0.06
20825 H 3.150072052189202 23.347021834082184 91.07811687237569 H 0.0 **** 0.06
20826 C 51.287674040592776 184.88608990899849 174.6031017850624 C 0.0 **** -0.24
20827 H 50.264759337667925 184.75441277740717 174.2503610768841 H 0.0 **** 0.06
20828 H 51.83564872074143 185.5133977870131 173.8996680981509 H 0.0 **** 0.06
20829 H 51.77409778041877 183.91388893237087 174.6775769520867 H 0.0 **** 0.06
20830 H 51.27539472512916 185.36269756404565 175.58296642287252 H 0.0 **** 0.06
20831 C 131.8491488423761 73.86963695542254 50.862945757205964 C 0.0 **** -0.24
20832 H 130.8449623551307 74.15863870631102 51.171736672448006 H 0.0 **** 0.06
20833 H 131.91613437196798 73.89628619728603 49.77458636802125 H 0.0 **** 0.06
20834 H 132.06108372799247 72.86003592868539 51.215769720332275 H 0.0 **** 0.06
20835 H 132.5747283130226 74.5628839189213 51.28905191238631 H 0.0 **** 0.06
20836 C 112.1738868955395 38.72920604749329 139.49790249237037 C 0.0 **** -0.24
20837 H 111.40276557513182 39.49563365195492 139.57168585271205 H 0.0 **** 0.06
20838 H 113.02150588222874 39.0066704851109 140.12556317667452 H 0.0 **** 0.06
20839 H 112.50092293821858 38.64141139202526 138.46274944014493 H 0.0 **** 0.06
20840 H 111.7703986445302 37.774306647073985 139.8343615881475 H 0.0 **** 0.06
20841 C 81.06725482227168 107.54575587878627 93.65598705955546 C 0.0 **** -0.24
20842 H 80.18162242515626 107.2483993465742 93.09461311260372 H 0.0 **** 0.06
20843 H 81.57806677000629 108.35142201823938 93.12832466965091 H 0.0 **** 0.06
20844 H 81.73846390107619 106.69210770701874 93.75325755522869 H 0.0 **** 0.06
20845 H 80.77085834829474 107.88931908035205 94.64639343452097 H 0.0 **** 0.06
20846 C 122.23517804876745 106.94025477989435 164.60492054442656 C 0.0 **** -0.24
20847 H 121.47492939469835 107.72122666461966 164.61849485533457 H 0.0 **** 0.06
20848 H 121.75392813823008 105.96461763303732 164.67069315972546 H 0.0 **** 0.06
20849 H 122.90688713216444 107.07240958367909 165.45225303050765 H 0.0 **** 0.06
20850 H 122.80340333995356 107.00320411337783 163.67640787097986 H 0.0 **** 0.06
20851 C 100.19971772414614 61.542728576356865 94.38437835773964 C 0.0 **** -0.24
20852 H 100.18659386763731 62.62523164532513 94.25460451142321 H 0.0 **** 0.06
20853 H 100.30671830495636 61.30517821154689 95.44236136374424 H 0.0 **** 0.06
20854 H 101.03694655151723 61.12028218387735 93.82951776345676 H 0.0 **** 0.06
20855 H 99.26624213322641 61.12095243425688 94.00966965849075 H 0.0 **** 0.06
20856 C 164.4097235643032 153.27410602884152 140.1756705692992 C 0.0 **** -0.24
20857 H 163.728156745201 153.29196408204484 139.32529940249992 H 0.0 **** 0.06
20858 H 164.57582145130584 152.24233144818788 140.48602855445597 H 0.0 **** 0.06
20859 H 163.97508154088047 153.83724722651175 141.0014076102383 H 0.0 **** 0.06
20860 H 165.3599168887484 153.72443546130472 139.88860714276893 H 0.0 **** 0.06
20861 C 78.73236770514268 98.94765121184865 67.76152891161519 C 0.0 **** -0.24
20862 H 78.57931043873546 99.85316310461387 68.34820176352571 H 0.0 **** 0.06
20863 H 78.9792786127573 99.21744774558734 66.73476204668634 H 0.0 **** 0.06
20864 H 77.82025821121739 98.35036651895162 67.77067476365806 H 0.0 **** 0.06
20865 H 79.54992410837092 98.36936467779758 68.19314170109783 H 0.0 **** 0.06
20866 C 135.84618839049017 10.148987575745423 160.53744777452826 C 0.0 **** -0.24
20867 H 134.9517054453283 10.740614419009773 160.72979713923783 H 0.0 **** 0.06
20868 H 136.6678019161236 10.810426685180062 160.2605887681744 H 0.0 **** 0.06
20869 H 135.65240685674166 9.450132159278667 159.72462236213818 H 0.0 **** 0.06
20870 H 136.11409418405952 9.594142528795032 161.43678855044757 H 0.0 **** 0.06
20871 C 175.70507057689656 53.54498512677344 149.22535591946232 C 0.0 **** -0.24
20872 H 174.7785763942024 53.18593446984602 149.67506199465302 H 0.0 **** 0.06
20873 H 175.48386673764855 54.02295602256112 148.2705009184056 H 0.0 **** 0.06
20874 H 176.3796450048796 52.70360053754979 149.06404349107294 H 0.0 **** 0.06
20875 H 176.17646723231815 54.26618117038879 149.89245696493617 H 0.0 **** 0.06
20876 C 98.70103828571168 68.276223638154 41.50747030795631 C 0.0 **** -0.24
20877 H 99.13685120385587 67.29353343840887 41.69118058550036 H 0.0 **** 0.06
20878 H 97.61518297112907 68.1923048996079 41.474939989686945 H 0.0 **** 0.06
20879 H 99.06580442330765 68.66215460605864 40.555765360435814 H 0.0 **** 0.06
20880 H 98.98982923969372 68.95648620722028 42.309209670867745 H 0.0 **** 0.06
20881 C 185.27301675829244 129.04927984131592 152.3544614458213 C 0.0 **** -0.24
20882 H 185.37729011132694 130.06651363640594 151.97528619668753 H 0.0 **** 0.06
20883 H 184.5187964402677 128.5209697238597 151.7720230607015 H 0.0 **** 0.06
20884 H 184.96844269820116 129.08233893558054 153.40059150704448 H 0.0 **** 0.06
20885 H 186.22786906075208 128.5313965666532 152.26965381811672 H 0.0 **** 0.06
20886 C 40.86554084310522 45.06461955796112 130.1022930171739 C 0.0 **** -0.24
20887 H 40.531742576494054 44.14125339740525 129.6292517860262 H 0.0 **** 0.06
20888 H 40.715718871158344 45.89882187507793 129.41787048594955 H 0.0 **** 0.06
20889 H 41.92413303943806 44.982692498431746 130.3506333164686 H 0.0 **** 0.06
20890 H 40.29088975613193 45.23419469719164 131.0133137547465 H 0.0 **** 0.06
20891 C 108.94723075674888 136.4343577703017 104.69245897570943 C 0.0 **** -0.24
20892 H 109.37645166625306 136.79529764422085 105.6272114486357 H 0.0 **** 0.06
20893 H 109.43035318523296 135.4991852511764 104.4080500094085 H 0.0 **** 0.06
20894 H 109.10292580775076 137.1771367911744 103.9102616010893 H 0.0 **** 0.06
20895 H 107.87786194647445 136.26550828762777 104.82468453548222 H 0.0 **** 0.06
20896 C 70.19575181627883 92.36393781335791 117.45697139391889 C 0.0 **** -0.24
20897 H 70.07235609924612 91.82592235972056 116.51762204131289 H 0.0 **** 0.06
20898 H 71.15537010119567 92.1013436697957 117.90243792490564 H 0.0 **** 0.06
20899 H 69.3906561027814 92.09130975756962 118.13991884343567 H 0.0 **** 0.06
20900 H 70.1638637032606 93.4368819401843 117.26732853388505 H 0.0 **** 0.06
20901 C 114.17975717417208 64.56280916916671 144.4744739468044 C 0.0 **** -0.24
20902 H 113.79572649952762 64.76309107117908 145.47466590876675 H 0.0 **** 0.06
20903 H 115.25753706871622 64.72757024956076 144.46077470160685 H 0.0 **** 0.06
20904 H 113.69991922085931 65.23231210909188 143.76057639402484 H 0.0 **** 0.06
20905 H 113.96641910033001 63.529133276540904 144.20385732318096 H 0.0 **** 0.06
20906 C 166.77963240098015 144.05965642218786 72.66038342780931 C 0.0 **** -0.24
20907 H 166.384052093394 143.2885538155347 71.99899068223529 H 0.0 **** 0.06
20908 H 165.97102835331884 144.46385675581158 73.27065876402413 H 0.0 **** 0.06
20909 H 167.22081672678408 144.85852439603556 72.06447847720659 H 0.0 **** 0.06
20910 H 167.54145744573103 143.62588899847353 73.30857768958809 H 0.0 **** 0.06
20911 C 18.91961131901052 109.85401697988208 71.81566226522978 C 0.0 **** -0.24
20912 H 18.50567267241182 110.76050245177457 71.37304587287389 H 0.0 **** 0.06
20913 H 19.7045479955587 110.12174335804143 72.52266322165046 H 0.0 **** 0.06
20914 H 19.33635374489367 109.22374466477713 71.0301701151167 H 0.0 **** 0.06
20915 H 18.130672744977367 109.31220959652974 72.33663350376402 H 0.0 **** 0.06
20916 C 79.41946916802617 91.01628238020481 56.94137263425881 C 0.0 **** -0.24
20917 H 78.61921371936096 91.57020417744314 57.433702056822 H 0.0 **** 0.06
20918 H 79.93868835668783 90.39982327830865 57.67522546298602 H 0.0 **** 0.06
20919 H 80.12325520043926 91.71795168677511 56.49342646208177 H 0.0 **** 0.06
20920 H 78.99631007047725 90.38009281786248 56.1642204137423 H 0.0 **** 0.06
20921 C 14.788935457859111 106.44744807398239 16.658946484667204 C 0.0 **** -0.24
20922 H 14.939612292648917 107.24981063082454 17.381198644878722 H 0.0 **** 0.06
20923 H 15.274311973044007 105.53941999535455 17.017401533933736 H 0.0 **** 0.06
20924 H 15.220484294481679 106.73661462872413 15.70044939026591 H 0.0 **** 0.06
20925 H 13.720766257184152 106.26553700543705 16.53634832016902 H 0.0 **** 0.06
20926 C 96.85998137828575 172.40606786967288 153.9578783983626 C 0.0 **** -0.24
20927 H 97.72352760172082 172.4537603258374 154.6208962713647 H 0.0 **** 0.06
20928 H 97.11529728806353 171.82300649403186 153.07172850208497 H 0.0 **** 0.06
20929 H 96.57543398746238 173.4149840302119 153.6591087084718 H 0.0 **** 0.06
20930 H 96.02732592741667 171.93201016090958 154.47754709292232 H 0.0 **** 0.06
20931 C 19.90915724207847 178.56568629044688 50.0745794496288 C 0.0 **** -0.24
20932 H 19.672970765828694 179.54436792965888 49.65662303400967 H 0.0 **** 0.06
20933 H 19.97073026682073 178.64124396792408 51.16118067138831 H 0.0 **** 0.06
20934 H 20.86531321469954 178.22272748559783 49.67860799747416 H 0.0 **** 0.06
20935 H 19.127420826621545 177.8561922942557 49.80323684370114 H 0.0 **** 0.06
20936 C 181.6636770420794 19.98183529251793 38.08115539741796 C 0.0 **** -0.24
20937 H 181.63812487145083 19.859271251947263 36.99781402211292 H 0.0 **** 0.06
20938 H 181.47271745110896 19.02088845273292 38.55960914257436 H 0.0 **** 0.06
20939 H 180.90016151023707 20.698069004439276 38.38312831317194 H 0.0 **** 0.06
20940 H 182.64527991656058 20.34886881273286 38.3808361512029 H 0.0 **** 0.06
20941 C 8.867250009260175 89.2335588603123 18.122348520868627 C 0.0 **** -0.24
20942 H 9.95133040393543 89.24023231912612 18.015056892429243 H 0.0 **** 0.06
20943 H 8.606127022553636 89.07350311195104 19.169236933204047 H 0.0 **** 0.06
20944 H 8.447223647603522 88.43150234688802 17.51540406878263 H 0.0 **** 0.06
20945 H 8.463610001116194 90.19022115303913 17.78967393214691 H 0.0 **** 0.06
20946 C 134.65893883296332 25.47620861396763 179.5704670813986 C 0.0 **** -0.24
20947 H 135.19138959094664 24.78991273756118 180.22941665371383 H 0.0 **** 0.06
20948 H 135.18519807444625 25.54738015287508 178.6191284664694 H 0.0 **** 0.06
20949 H 134.61072742990467 26.461061294947598 180.03439294334987 H 0.0 **** 0.06
20950 H 133.64791144718265 25.103761456257203 179.4014459681243 H 0.0 **** 0.06
20951 C 88.98753320911577 93.62345419819093 126.8137132431472 C 0.0 **** -0.24
20952 H 89.74937578888272 94.2335480349156 127.29991256407057 H 0.0 **** 0.06
20953 H 88.81060114751723 93.99932197891161 125.80526053914478 H 0.0 **** 0.06
20954 H 88.06240109893987 93.67357520796838 127.38717710868319 H 0.0 **** 0.06
20955 H 89.32801017662707 92.58935337766599 126.76241717784161 H 0.0 **** 0.06
20956 C 136.2993528961461 32.87998218495457 10.306186600594536 C 0.0 **** -0.24
20957 H 135.55349918719224 32.7266517649511 9.526811614535909 H 0.0 **** 0.06
20958 H 136.11118577516652 32.19134761878718 11.129060769941297 H 0.0 **** 0.06
20959 H 136.23890371597219 33.90607888785553 10.669116097468084 H 0.0 **** 0.06
20960 H 137.29380591247985 32.69727937494653 9.898038019166421 H 0.0 **** 0.06
20961 C 184.89389886126924 16.36062778951247 126.197895557367 C 0.0 **** -0.24
20962 H 184.3617624031031 15.833868586800953 126.99038650994142 H 0.0 **** 0.06
20963 H 184.22918910520448 16.49925921419124 125.34468242194949 H 0.0 **** 0.06
20964 H 185.7614570649266 15.776711846220472 125.89312800984435 H 0.0 **** 0.06
20965 H 185.22162356051166 17.333813339735343 126.56588579400146 H 0.0 **** 0.06
20966 C 173.82202156115878 167.6070124279508 29.997652519724568 C 0.0 **** -0.24
20967 H 172.99924409467988 166.89189454747176 29.979430681553552 H 0.0 **** 0.06
20968 H 173.46721427141708 168.5595150809949 30.38968544577125 H 0.0 **** 0.06
20969 H 174.20255895132505 167.74870937751828 28.986512760675467 H 0.0 **** 0.06
20970 H 174.61969193863814 167.22559800936384 30.635394146471597 H 0.0 **** 0.06
20971 C 81.5870915786522 98.95227753606706 21.99167523514774 C 0.0 **** -0.24
20972 H 81.72141511135402 98.33384233470137 21.10478097516284 H 0.0 **** 0.06
20973 H 80.6828585678037 98.64401334330314 22.51661543731018 H 0.0 **** 0.06
20974 H 81.49626888084305 99.99786537132412 21.695591284381123 H 0.0 **** 0.06
20975 H 82.44736310371174 98.83503830798516 22.649973956657675 H 0.0 **** 0.06
20976 C 149.23950374144118 66.084940729464 171.20800630136577 C 0.0 **** -0.24
20977 H 150.04341306785312 65.38127265041555 171.4223223625481 H 0.0 **** 0.06
20978 H 148.49980407328653 66.0441822265482 172.00756024490352 H 0.0 **** 0.06
20979 H 148.76772656596944 65.81982809885181 170.26219292855214 H 0.0 **** 0.06
20980 H 149.64760019556618 67.09260775602715 171.14041361356834 H 0.0 **** 0.06
20981 C 91.09348305780925 118.33607941754953 172.7681735159675 C 0.0 **** -0.24
20982 H 90.86904723359503 118.65181322935042 171.74900517832057 H 0.0 **** 0.06
20983 H 90.63095393769463 117.36738506911983 172.9584691958433 H 0.0 **** 0.06
20984 H 90.70152158104663 119.07146535944018 173.4705267541184 H 0.0 **** 0.06
20985 H 92.1738623380755 118.25394072804828 172.89274174554538 H 0.0 **** 0.06
20986 C 132.86780133623483 154.5501250762515 26.014036540317704 C 0.0 **** -0.24
20987 H 132.19019331425233 153.97563029756967 26.64576471395509 H 0.0 **** 0.06
20988 H 132.46276353212352 155.55050143536977 25.864263848268934 H 0.0 **** 0.06
20989 H 132.97547417444133 154.05201355095647 25.050377971351878 H 0.0 **** 0.06
20990 H 133.84259483461142 154.62055477697982 26.497053792129805 H 0.0 **** 0.06
20991 C 22.33409920359925 44.956550215458265 50.91452562300998 C 0.0 **** -0.24
20992 H 22.37457489339444 45.25712722139707 51.961524451789785 H 0.0 **** 0.06
20993 H 22.7989141519529 43.97661643554301 50.80040619108155 H 0.0 **** 0.06
20994 H 22.869575869399128 45.68613733327827 50.30714704490072 H 0.0 **** 0.06
20995 H 21.2949250350146 44.90560886327751 50.590744262073656 H 0.0 **** 0.06
20996 C 137.80896658423512 147.47280344214116 60.765853621678914 C 0.0 **** -0.24
20997 H 138.39360623901024 146.59977975902694 61.05449953962594 H 0.0 **** 0.06
20998 H 137.12420246134025 147.20262017964853 59.962246470398696 H 0.0 **** 0.06
20999 H 138.47979894240854 148.26078742134268 60.42270558745997 H 0.0 **** 0.06
21000 H 137.2396819278763 147.82897274216512 61.62424383883149 H 0.0 **** 0.06
21001 C 95.68090584281539 7.032891542255868 95.4904925877221 C 0.0 **** -0.24
21002 H 96.68894787802891 7.272020652676048 95.14981103703484 H 0.0 **** 0.06
21003 H 95.73637147910564 6.331423289782322 96.32312349319908 H 0.0 **** 0.06
21004 H 95.1185284536417 6.5827835307584905 94.67261679913788 H 0.0 **** 0.06
21005 H 95.18220603496785 7.945639379844664 95.81636871060094 H 0.0 **** 0.06
21006 C 179.71681769369576 70.8063353131979 57.29393922753616 C 0.0 **** -0.24
21007 H 180.1984509966755 70.58003971572339 56.342837750748316 H 0.0 **** 0.06
21008 H 180.47822108367166 70.93561760448131 58.06396218940705 H 0.0 **** 0.06
21009 H 179.0557249605998 69.98481806200766 57.57146614254884 H 0.0 **** 0.06
21010 H 179.13615545351055 71.72312365811217 57.198640626851784 H 0.0 **** 0.06
21011 C 45.7859526112524 140.77350767683606 28.13320283873327 C 0.0 **** -0.24
21012 H 44.97976425816539 140.2736108287276 28.66912617077594 H 0.0 **** 0.06
21013 H 46.179612394911075 141.58626356708498 28.743742113202643 H 0.0 **** 0.06
21014 H 45.402721572269996 141.17591947218284 27.194878742589992 H 0.0 **** 0.06
21015 H 46.58131981434853 140.05856914269464 27.92288815830443 H 0.0 **** 0.06
21016 C 10.18513167891075 52.84897727650525 79.14849839865902 C 0.0 **** -0.24
21017 H 9.732441300674708 51.92919109505122 78.77778803801395 H 0.0 **** 0.06
21018 H 10.133571980022225 52.86486952644351 80.23778781414254 H 0.0 **** 0.06
21019 H 9.645998374551596 53.70712437649563 78.74745327203242 H 0.0 **** 0.06
21020 H 11.227197156076954 52.89417088013036 78.8329537455388 H 0.0 **** 0.06
21021 C 74.26031211645291 145.2347352175289 9.344252668441861 C 0.0 **** -0.24
21022 H 75.26283026711842 144.96473743758116 9.67625556187231 H 0.0 **** 0.06
21023 H 73.55419425977034 145.08207415992786 10.161170391266943 H 0.0 **** 0.06
21024 H 73.97855811215402 144.6104080687353 8.497795584360198 H 0.0 **** 0.06
21025 H 74.2475242706941 146.28229453890086 9.04465580152614 H 0.0 **** 0.06
21026 C 168.47859714157406 63.82208753194311 115.70594989046883 C 0.0 **** -0.24
21027 H 169.0886476842672 64.37862340760381 114.99520205062653 H 0.0 **** 0.06
21028 H 167.6719218062991 63.31679447232818 115.17433987903043 H 0.0 **** 0.06
21029 H 168.05601467184513 64.50926717126507 116.43957894188195 H 0.0 **** 0.06
21030 H 169.09755255708765 63.082741898021936 116.21438827810483 H 0.0 **** 0.06
21031 C 100.51498757824022 2.450446774323808 48.43787514252148 C 0.0 **** -0.24
21032 H 99.9558261040866 3.383838568534145 48.37827186204618 H 0.0 **** 0.06
21033 H 99.86061515563686 1.6591082069763843 48.80672528298504 H 0.0 **** 0.06
21034 H 101.35581550969154 2.5735135975257037 49.12055172185819 H 0.0 **** 0.06
21035 H 100.88510703698033 2.1845151249087564 47.44853077983231 H 0.0 **** 0.06
21036 C 94.23027225954934 16.137609165869236 64.78871003867133 C 0.0 **** -0.24
21037 H 94.87300260562284 16.938028808522148 64.42283512882685 H 0.0 **** 0.06
21038 H 93.75487160050602 16.449820674920943 65.71893666028133 H 0.0 **** 0.06
21039 H 94.82954802669832 15.244195111583679 64.9680345482241 H 0.0 **** 0.06
21040 H 93.46484402852201 15.917684545501572 64.04537087277606 H 0.0 **** 0.06
21041 C 173.50653065055926 138.63023859216707 99.03158405230654 C 0.0 **** -0.24
21042 H 173.52208477057536 138.9939384378207 98.00386382270905 H 0.0 **** 0.06
21043 H 173.7022594215363 137.5578107595416 99.03959432516199 H 0.0 **** 0.06
21044 H 172.529695094621 138.82608208288548 99.4721438680702 H 0.0 **** 0.06
21045 H 174.27509107820646 139.14393917028679 99.60892099301752 H 0.0 **** 0.06
21046 C 60.31792539017958 167.57106878923335 49.80393913430365 C 0.0 **** -0.24
21047 H 60.77798845178616 168.47069475344958 49.39606728145159 H 0.0 **** 0.06
21048 H 59.50730578785489 167.24902063928994 49.14997336894271 H 0.0 **** 0.06
21049 H 59.92072580967154 167.78546799260107 50.79672152180774 H 0.0 **** 0.06
21050 H 61.06432842753679 166.78073678269578 49.874204014054556 H 0.0 **** 0.06
21051 C 126.37416124344368 166.28036764839624 131.45333712095277 C 0.0 **** -0.24
21052 H 125.4526126085836 166.58368586670355 131.9507469613249 H 0.0 **** 0.06
21053 H 126.27709852140792 166.44002938938877 130.37985992090466 H 0.0 **** 0.06
21054 H 126.56156344372432 165.22447415154437 131.6488664175315 H 0.0 **** 0.06
21055 H 127.20478566702944 166.87378557182103 131.83542558926177 H 0.0 **** 0.06
21056 C 77.8546380857543 163.04114523459174 140.7814999531219 C 0.0 **** -0.24
21057 H 78.09685142047321 164.094795014097 140.64085778736558 H 0.0 **** 0.06
21058 H 77.06355212938652 162.94744195050552 141.5258695399391 H 0.0 **** 0.06
21059 H 78.74052373339609 162.5067419742093 141.1229426418331 H 0.0 **** 0.06
21060 H 77.51594593442884 162.6166334429675 139.83667154711696 H 0.0 **** 0.06
21061 C 8.949487014418082 27.25138113925793 162.83879258228922 C 0.0 **** -0.24
21062 H 8.816423426995925 26.74812139168037 163.79605537393576 H 0.0 **** 0.06
21063 H 8.006483533920488 27.244152735484576 162.29155628432335 H 0.0 **** 0.06
21064 H 9.711621530489765 26.7326492703844 162.25839051593454 H 0.0 **** 0.06
21065 H 9.261436488455018 28.28173369096993 163.01005411383022 H 0.0 **** 0.06
21066 C 49.281004164202784 49.50308663517937 112.70195389590106 C 0.0 **** -0.24
21067 H 49.336586554067594 48.514908832401304 113.15930562859944 H 0.0 **** 0.06
21068 H 48.50892769167257 50.08952954651038 113.19983539849608 H 0.0 **** 0.06
21069 H 49.034729020095995 49.40064412305401 111.6453302940908 H 0.0 **** 0.06
21070 H 50.24198562626373 50.00541508590483 112.80452132164646 H 0.0 **** 0.06
21071 C 79.49849894458586 183.8648257600431 75.2834320277671 C 0.0 **** -0.24
21072 H 78.44213011603983 183.92668605887215 75.54540449079151 H 0.0 **** 0.06
21073 H 79.6436204289914 184.23449241560553 74.26793722101306 H 0.0 **** 0.06
21074 H 79.8276137881975 182.82749560790916 75.34330635268945 H 0.0 **** 0.06
21075 H 80.08078363065816 184.47089984781445 75.97803056373228 H 0.0 **** 0.06
21076 C 90.40627734008491 65.72656478239932 179.43447941520475 C 0.0 **** -0.24
21077 H 91.00028552880418 64.82252654044845 179.56993236403832 H 0.0 **** 0.06
21078 H 91.04760079825108 66.53055719417313 179.07114096845464 H 0.0 **** 0.06
21079 H 89.96251888745554 66.01637155762006 180.3867418907713 H 0.0 **** 0.06
21080 H 89.61586344001687 65.53558785912736 178.70862678261238 H 0.0 **** 0.06
21081 C 152.30953551370027 115.56983563673282 4.806222372253224 C 0.0 **** -0.24
21082 H 151.83328161658423 114.96503783676002 5.57842974701186 H 0.0 **** 0.06
21083 H 153.33006079990315 115.80558078490634 5.1063535176563235 H 0.0 **** 0.06
21084 H 151.74723090039242 116.49398913989847 4.670663527020544 H 0.0 **** 0.06
21085 H 152.32481909686464 115.01419346170991 3.868371872784941 H 0.0 **** 0.06
21086 C 102.29109388298572 33.58573957627338 44.4256196355162 C 0.0 **** -0.24
21087 H 103.2305216010566 33.88258134570165 44.89180831666906 H 0.0 **** 0.06
21088 H 101.63827848042637 33.13792547060699 45.17494929768068 H 0.0 **** 0.06
21089 H 102.49093371302762 32.86010423987899 43.63692401961643 H 0.0 **** 0.06
21090 H 101.80516778637168 34.46230153958872 43.99748495055317 H 0.0 **** 0.06
21091 C 23.60563538055976 176.55046116653955 25.523314251474517 C 0.0 **** -0.24
21092 H 24.40429872681699 176.28685423881765 26.215214938140548 H 0.0 **** 0.06
21093 H 23.538457279063323 175.7955188886763 24.740090389628904 H 0.0 **** 0.06
21094 H 23.81925190083058 177.52125753887518 25.074118534377874 H 0.0 **** 0.06
21095 H 22.65950653043052 176.60079693927003 26.062704541839196 H 0.0 **** 0.06
21096 C 73.10926612048613 117.91516628519763 14.202493045102756 C 0.0 **** -0.24
21097 H 73.49397695983231 118.92005985857669 14.376383350296038 H 0.0 **** 0.06
21098 H 72.928700666291 117.42528987684055 15.159943625538432 H 0.0 **** 0.06
21099 H 73.83848643795841 117.3404828345701 13.632311495623128 H 0.0 **** 0.06
21100 H 72.17614645463793 117.97567848584696 13.642825006304747 H 0.0 **** 0.06
21101 C 83.98529117242317 179.23038663911709 4.922761606415136 C 0.0 **** -0.24
21102 H 83.81920733926879 179.2329299579193 3.8459291998665677 H 0.0 **** 0.06
21103 H 84.88508923240823 178.65757067291722 5.148909131256815 H 0.0 **** 0.06
21104 H 83.12936053630088 178.7747812285526 5.4209712277142685 H 0.0 **** 0.06
21105 H 84.10856231055133 180.2542529679344 5.274320001936935 H 0.0 **** 0.06
21106 C 20.47764617793311 36.95895817582499 32.5921451317908 C 0.0 **** -0.24
21107 H 20.250281453415766 36.77056909515056 31.54275806932361 H 0.0 **** 0.06
21108 H 20.50355939629506 36.01305540822847 33.13303589639682 H 0.0 **** 0.06
21109 H 19.70832902128342 37.6025295634887 33.01949318485899 H 0.0 **** 0.06
21110 H 21.447193035737712 37.449998177675184 32.67144805560639 H 0.0 **** 0.06
21111 C 29.91291825590457 113.00320838735875 108.39939125613269 C 0.0 **** -0.24
21112 H 29.243139431194578 112.17255518175084 108.62354736089883 H 0.0 **** 0.06
21113 H 30.88589618799648 112.61462004393282 108.09849856889151 H 0.0 **** 0.06
21114 H 30.02824898745496 113.6252180843202 109.2866821369333 H 0.0 **** 0.06
21115 H 29.493040086416897 113.59894317637527 107.58980697352617 H 0.0 **** 0.06
21116 C 125.93692777945527 139.46254678713 111.4540673086726 C 0.0 **** -0.24
21117 H 125.22424503364333 138.66181830027477 111.65453821998476 H 0.0 **** 0.06
21118 H 126.90212141071335 139.2081239470968 111.89397375214183 H 0.0 **** 0.06
21119 H 125.57109078038046 140.39128195234105 111.89114925697378 H 0.0 **** 0.06
21120 H 126.04938563465923 139.5867006091484 110.37696590902128 H 0.0 **** 0.06
21121 C 32.81810240263607 26.530142559532806 156.44035621741318 C 0.0 **** -0.24
21122 H 32.637146411261796 26.72293042805927 155.3828009536452 H 0.0 **** 0.06
21123 H 32.11420337730567 27.10682893117388 157.04115100451014 H 0.0 **** 0.06
21124 H 33.83742653997149 26.82112010375141 156.69403462318138 H 0.0 **** 0.06
21125 H 32.683156147540814 25.467757324603554 156.6436232492823 H 0.0 **** 0.06
21126 C 7.267031968451164 1.3265110460313423 134.5759347205589 C 0.0 **** -0.24
21127 H 7.202694785583844 1.6187390583195835 135.62390555554526 H 0.0 **** 0.06
21128 H 7.9981130545452 1.955317799370306 134.0667668689387 H 0.0 **** 0.06
21129 H 6.291123930886357 1.4497485834318127 134.10492791841227 H 0.0 **** 0.06
21130 H 7.574020152779497 0.28333916520207936 134.50790517089615 H 0.0 **** 0.06
21131 C 144.46819189156062 109.71514691505702 36.28208852881758 C 0.0 **** -0.24
21132 H 145.0741443446409 109.55656591470036 35.38952364248914 H 0.0 **** 0.06
21133 H 144.51771815712587 108.82939447328538 36.91612965270755 H 0.0 **** 0.06
21134 H 143.4341208383712 109.89717634111743 35.99130909221557 H 0.0 **** 0.06
21135 H 144.84870139423106 110.57622675746275 36.830482875003995 H 0.0 **** 0.06
21136 C 164.42318432728194 160.90699907729538 123.85200341645094 C 0.0 **** -0.24
21137 H 163.41027096014608 161.3033842992466 123.9228880455355 H 0.0 **** 0.06
21138 H 164.8635348428057 160.8571519947609 124.8477313156597 H 0.0 **** 0.06
21139 H 165.02456653925748 161.5595983858824 123.21939221523155 H 0.0 **** 0.06
21140 H 164.39223077017488 159.90800418919923 123.4173501656802 H 0.0 **** 0.06
21141 C 0.19888278179467989 154.17189156724368 88.28716907306033 C 0.0 **** -0.24
21142 H -0.31281092658710463 153.35127819783133 87.78279357032109 H 0.0 **** 0.06
21143 H 1.1482090880372198 154.3679537970262 87.78931616795195 H 0.0 **** 0.06
21144 H 0.38277243629423197 153.89966041900078 89.32651990984668 H 0.0 **** 0.06
21145 H -0.4230460892055703 155.065737826318 88.24958337463944 H 0.0 **** 0.06
21146 C 100.0827806539037 19.721100409639433 34.267978011447724 C 0.0 **** -0.24
21147 H 99.22890773446711 19.420375485943367 34.87491863146796 H 0.0 **** 0.06
21148 H 99.98330271348193 19.297293373170646 33.26809995530394 H 0.0 **** 0.06
21149 H 101.00074784402945 19.357259516654324 34.72772072621608 H 0.0 **** 0.06
21150 H 100.11552218012652 20.808253757269057 34.200443276570624 H 0.0 **** 0.06
21151 C 154.6193810438288 149.43785569316495 138.3844467372146 C 0.0 **** -0.24
21152 H 154.32662496500953 148.5095703765748 138.8758036655865 H 0.0 **** 0.06
21153 H 155.28961525171093 149.99837289863564 139.03725985608622 H 0.0 **** 0.06
21154 H 153.73090105345003 150.03361861276605 138.1759084756515 H 0.0 **** 0.06
21155 H 155.1301064520057 149.20847882366536 137.44893127193257 H 0.0 **** 0.06
21156 C 27.502315137409767 170.4564783665845 139.73363766398677 C 0.0 **** -0.24
21157 H 26.78671476825147 169.6422659331031 139.61271774735076 H 0.0 **** 0.06
21158 H 27.814841663330412 170.5122761458443 140.7765049364536 H 0.0 **** 0.06
21159 H 27.035894051162643 171.39710727320903 139.44228912420334 H 0.0 **** 0.06
21160 H 28.37164918972917 170.2718327362314 139.1027885119833 H 0.0 **** 0.06
21161 C 79.62588537262252 118.46542392211815 70.6138985014189 C 0.0 **** -0.24
21162 H 79.72023858798036 117.4491309377684 70.994051574095 H 0.0 **** 0.06
21163 H 79.99809580331572 119.16817295706896 71.35945839585726 H 0.0 **** 0.06
21164 H 78.57796380170652 118.67935236400278 70.40329372922263 H 0.0 **** 0.06
21165 H 80.20824727606106 118.56546239169997 69.69744375376955 H 0.0 **** 0.06
21166 C 7.6953911116792995 40.30445709436991 69.24387963912555 C 0.0 **** -0.24
21167 H 7.120570719803538 41.109474376975044 68.78629134273865 H 0.0 **** 0.06
21168 H 8.086004860819202 40.63894733258945 70.20590697171248 H 0.0 **** 0.06
21169 H 8.52394965823089 40.03273349845561 68.58963702941456 H 0.0 **** 0.06
21170 H 7.051902867931659 39.437618619195675 69.39428343385683 H 0.0 **** 0.06
21171 C 131.7480104378609 98.11516046817968 91.26305000228096 C 0.0 **** -0.24
21172 H 130.8873777047466 97.52129322514867 91.57005219704477 H 0.0 **** 0.06
21173 H 132.66416688245204 97.62631342628595 91.59359544370479 H 0.0 **** 0.06
21174 H 131.68296228288182 99.10698051420047 91.71097868950606 H 0.0 **** 0.06
21175 H 131.75680502570452 98.20746282573998 90.17599740600404 H 0.0 **** 0.06
21176 C 164.36865348133892 54.71751517680394 86.64864540803664 C 0.0 **** -0.24
21177 H 164.2464754827455 53.98069499949844 87.4424891736188 H 0.0 **** 0.06
21178 H 165.33025891725805 54.5685776015095 86.15856284207818 H 0.0 **** 0.06
21179 H 164.32946789014073 55.719528957039074 87.07667374065566 H 0.0 **** 0.06
21180 H 163.5666094070844 54.603098634483786 85.9200759204691 H 0.0 **** 0.06
21181 C 104.1754426361634 49.527283628697546 8.690848644014352 C 0.0 **** -0.24
21182 H 104.74964440931602 49.752030266020796 7.791282265713498 H 0.0 **** 0.06
21183 H 103.34213943919131 48.87264374498821 8.435416128363286 H 0.0 **** 0.06
21184 H 103.7925349515482 50.454112712448364 9.117445533090752 H 0.0 **** 0.06
21185 H 104.81860207436459 49.0304923067344 9.417092871093729 H 0.0 **** 0.06
21186 C 183.6864006472799 158.32471368109555 31.849375791898012 C 0.0 **** -0.24
21187 H 184.01841485588756 158.20889208413243 30.818101694844472 H 0.0 **** 0.06
21188 H 184.3752840560966 157.80160494290396 32.51320429333511 H 0.0 **** 0.06
21189 H 182.68737927275492 157.90436038819044 31.959292733179183 H 0.0 **** 0.06
21190 H 183.66661548649145 159.38344384477102 32.10805388134263 H 0.0 **** 0.06
21191 C 43.80896362457412 88.65653306944779 6.875387277457293 C 0.0 **** -0.24
21192 H 43.2264369964353 88.06466494149817 7.580829826420178 H 0.0 **** 0.06
21193 H 43.626268862574534 89.71622774450623 7.052565643600289 H 0.0 **** 0.06
21194 H 43.51374567327417 88.40173111322798 5.857343713970714 H 0.0 **** 0.06
21195 H 44.86897152423114 88.4421652952276 7.0109087487008 H 0.0 **** 0.06
21196 C 176.33004463498276 97.03544594955548 88.3991813831173 C 0.0 **** -0.24
21197 H 176.01170600636914 96.73152795913023 89.39618124584008 H 0.0 **** 0.06
21198 H 175.6935411362912 97.84699472947455 88.04593041302302 H 0.0 **** 0.06
21199 H 176.25152825919724 96.18807484888828 87.7176567878502 H 0.0 **** 0.06
21200 H 177.36548108814733 97.37597760473523 88.43719377485242 H 0.0 **** 0.06
21201 C 120.77517991224666 97.46126177408512 136.23327737928827 C 0.0 **** -0.24
21202 H 121.28115064419508 97.83722912673197 137.1228236371801 H 0.0 **** 0.06
21203 H 121.51613159573203 97.19703727062127 135.47857254613893 H 0.0 **** 0.06
21204 H 120.11380889382941 98.23395873674387 135.83888393299407 H 0.0 **** 0.06
21205 H 120.1897622549731 96.57969453038608 136.4936842039645 H 0.0 **** 0.06
21206 C 93.08054447569243 145.79611316790186 154.71215367971672 C 0.0 **** -0.24
21207 H 92.26528679989751 145.89302852296882 155.4283866534554 H 0.0 **** 0.06
21208 H 92.8318790905894 145.0260337395182 153.98017169460087 H 0.0 **** 0.06
21209 H 93.99369169907077 145.51686659111135 155.23694491370173 H 0.0 **** 0.06
21210 H 93.23059702412887 146.7473462992851 154.20108897080578 H 0.0 **** 0.06
21211 C 78.98567532071804 152.09099295790065 84.5598990525878 C 0.0 **** -0.24
21212 H 79.14314204085346 152.6567587582929 83.64110001117108 H 0.0 **** 0.06
21213 H 78.65151820698739 152.7651763648843 85.34811609420852 H 0.0 **** 0.06
21214 H 79.92073390032515 151.61610961036098 84.85833605131089 H 0.0 **** 0.06
21215 H 78.2283707147532 151.3259013370226 84.38906607095377 H 0.0 **** 0.06
21216 C 76.225932808756 26.244904435761185 97.86470034105326 C 0.0 **** -0.24
21217 H 76.64855866254554 27.087900387442488 97.31822841034756 H 0.0 **** 0.06
21218 H 77.0285322174925 25.581292414026592 98.1868007007323 H 0.0 **** 0.06
21219 H 75.54066122856015 25.698851493691052 97.21512782860526 H 0.0 **** 0.06
21220 H 75.68481625967578 26.612662970656686 98.7361025937929 H 0.0 **** 0.06
21221 C 36.655374662043386 4.266410381285027 146.8156645469425 C 0.0 **** -0.24
21222 H 35.69192808609574 4.465547380758039 146.34743651516197 H 0.0 **** 0.06
21223 H 37.25781826547694 3.642239022619435 146.15507601935533 H 0.0 **** 0.06
21224 H 36.50014917999289 3.749949961617517 147.76214329046155 H 0.0 **** 0.06
21225 H 37.17278641623062 5.209370800454849 146.99679744617154 H 0.0 **** 0.06
21226 C 165.5520181121759 16.67577712037931 32.47108214440135 C 0.0 **** -0.24
21227 H 164.914307026514 16.92310682254481 31.62265245229281 H 0.0 **** 0.06
21228 H 165.54089299169394 15.596925229493223 32.63162259060391 H 0.0 **** 0.06
21229 H 165.18176368058337 17.179963259893725 33.36271565170733 H 0.0 **** 0.06
21230 H 166.57225618845382 17.000969417469037 32.26589292300952 H 0.0 **** 0.06
21231 C 93.54731222713788 54.908391055692974 47.826503745503715 C 0.0 **** -0.24
21232 H 93.36475729761177 55.66547424382138 47.06460737483894 H 0.0 **** 0.06
21233 H 92.59659430178912 54.49786474068051 48.16668448386707 H 0.0 **** 0.06
21234 H 94.0705973634566 55.35945371072562 48.66930532247278 H 0.0 **** 0.06
21235 H 94.15803942274302 54.10956987359464 47.40551398248277 H 0.0 **** 0.06
21236 C 124.92472425673618 53.56942586344657 94.40489317769755 C 0.0 **** -0.24
21237 H 123.91025345123147 53.95877931135223 94.31628588188528 H 0.0 **** 0.06
21238 H 124.96635220278638 52.565332492128235 93.98199603214141 H 0.0 **** 0.06
21239 H 125.20889783580016 53.53167323798354 95.45661105056507 H 0.0 **** 0.06
21240 H 125.6131044644922 54.21987284219681 93.86553543507227 H 0.0 **** 0.06
21241 C 117.55516208232292 78.69116825123399 154.7549129073529 C 0.0 **** -0.24
21242 H 117.82812379157248 77.6692894856759 155.01966576419304 H 0.0 **** 0.06
21243 H 116.47979075178698 78.82269784645887 154.87710883174702 H 0.0 **** 0.06
21244 H 117.82998201986676 78.88360239060292 153.71854355693455 H 0.0 **** 0.06
21245 H 118.08287507345413 79.38835781708472 155.4064450208134 H 0.0 **** 0.06
21246 C 44.99029337571773 17.0814370261377 37.37322212152864 C 0.0 **** -0.24
21247 H 44.20664695728607 16.35926617896279 37.60423282202646 H 0.0 **** 0.06
21248 H 45.56457325811738 17.295273272177866 38.27556079420884 H 0.0 **** 0.06
21249 H 44.53834023975344 18.001372364065283 37.002772810458964 H 0.0 **** 0.06
21250 H 45.65111546703997 16.668525188795712 36.61050503005532 H 0.0 **** 0.06
21251 C 88.44737235085402 149.56750578264166 115.23920362112226 C 0.0 **** -0.24
21252 H 89.24590088971148 150.30101886009362 115.12251972860163 H 0.0 **** 0.06
21253 H 88.58576731556302 149.02665333171115 116.1761517835002 H 0.0 **** 0.06
21254 H 88.47382035928821 148.8654207982603 114.40611327193396 H 0.0 **** 0.06
21255 H 87.48462324411783 150.07853641931644 115.2537711447806 H 0.0 **** 0.06
21256 C 52.07486993289464 23.611915988364018 76.93955247194816 C 0.0 **** -0.24
21257 H 52.12284883759884 24.507300262871524 77.55913328490328 H 0.0 **** 0.06
21258 H 51.19699605161577 23.02665204617523 77.21408287311704 H 0.0 **** 0.06
21259 H 52.97356085689461 23.014864677290092 77.09421247530787 H 0.0 **** 0.06
21260 H 52.00711139327035 23.90023371483187 75.89075314788386 H 0.0 **** 0.06
21261 C 53.89992385924651 65.6341914854597 58.16066215538895 C 0.0 **** -0.24
21262 H 54.65063629397932 66.32791387463483 57.77995821375083 H 0.0 **** 0.06
21263 H 53.64878251017876 64.91077553475259 57.384232006209274 H 0.0 **** 0.06
21264 H 53.00606085384956 66.18784506014674 58.44562526890721 H 0.0 **** 0.06
21265 H 54.2970628487372 65.11140532881058 59.02974821384406 H 0.0 **** 0.06
21266 C 159.2139478452471 97.1961513613321 13.41443581340883 C 0.0 **** -0.24
21267 H 159.01023440375593 96.38655229368736 12.712051587500696 H 0.0 **** 0.06
21268 H 160.12212124422322 96.97085423327688 13.97334782814238 H 0.0 **** 0.06
21269 H 158.37757943054683 97.29704637989802 14.10513864403265 H 0.0 **** 0.06
21270 H 159.34691481697277 98.12751095839833 12.86499116526278 H 0.0 **** 0.06
21271 C 9.4828621026274 27.037246571504568 120.00718724925888 C 0.0 **** -0.24
21272 H 9.431318256730805 27.181326870233875 121.0863162770266 H 0.0 **** 0.06
21273 H 9.344780469521233 27.995593672308928 119.5062694237427 H 0.0 **** 0.06
21274 H 8.698016751487906 26.347532690484513 119.69514250245892 H 0.0 **** 0.06
21275 H 10.456213742487648 26.624444622824342 119.74188081860238 H 0.0 **** 0.06
21276 C 175.3855141753018 4.2801683485831745 16.206999043609564 C 0.0 **** -0.24
21277 H 175.01955925368836 5.305468318013652 16.258645190995807 H 0.0 **** 0.06
21278 H 176.06522258908166 4.180181243537589 15.35932016865722 H 0.0 **** 0.06
21279 H 174.54419445172203 3.599694731650402 16.079413312227224 H 0.0 **** 0.06
21280 H 175.91508886583335 4.036212296872094 17.12758659456471 H 0.0 **** 0.06
21281 C 174.57499766298804 39.62128573467588 132.2311282100424 C 0.0 **** -0.24
21282 H 175.55226939925547 40.08030889637088 132.08591793920164 H 0.0 **** 0.06
21283 H 174.24115095396638 39.79540079648018 133.25428347492738 H 0.0 **** 0.06
21284 H 174.6475706765678 38.54875129798209 132.05048102296354 H 0.0 **** 0.06
21285 H 173.85968079816064 40.06063513300428 131.53595970606227 H 0.0 **** 0.06
21286 C 135.9737847584177 82.51248776918283 67.68405195122926 C 0.0 **** -0.24
21287 H 136.37019102900365 83.3880410685345 67.17132900934126 H 0.0 **** 0.06
21288 H 136.72637533593746 82.11962525077456 68.36786832520798 H 0.0 **** 0.06
21289 H 135.7140600665711 81.74873221893682 66.95111341077782 H 0.0 **** 0.06
21290 H 135.08308540722788 82.79281650632538 68.24654624787829 H 0.0 **** 0.06
21291 C 94.00669021644637 147.26331699928863 132.5450664199381 C 0.0 **** -0.24
21292 H 93.90805781464195 147.40252452020252 133.6215566774934 H 0.0 **** 0.06
21293 H 93.08853069614298 146.82920332797474 132.14893539865005 H 0.0 **** 0.06
21294 H 94.84300812420065 146.5941453786117 132.34099025440844 H 0.0 **** 0.06
21295 H 94.18841713202534 148.22678540932776 132.0690261805725 H 0.0 **** 0.06
21296 C 61.6040854295305 92.6895459601922 138.4389667604326 C 0.0 **** -0.24
21297 H 61.38654217419915 91.71027152891692 138.01057567036378 H 0.0 **** 0.06
21298 H 62.669301919541965 92.90109811238837 138.33766562972284 H 0.0 **** 0.06
21299 H 61.33117279220781 92.69262449959002 139.4937233916175 H 0.0 **** 0.06
21300 H 61.03045230396263 93.45163557492775 137.91141124602694 H 0.0 **** 0.06
21301 C 62.96318624365881 21.36006581826308 35.06751025026142 C 0.0 **** -0.24
21302 H 62.63059700620185 22.206834315023315 35.668172287753976 H 0.0 **** 0.06
21303 H 63.971448732549035 21.549899319851875 34.69811021950727 H 0.0 **** 0.06
21304 H 62.28635923083793 21.225217331091386 34.223681802669745 H 0.0 **** 0.06
21305 H 62.964340005046395 20.45831230708572 35.68007669111472 H 0.0 **** 0.06
21306 C 122.74176825647105 152.35014055422363 46.5660559010181 C 0.0 **** -0.24
21307 H 121.78885631249527 152.82537686475118 46.33389295887633 H 0.0 **** 0.06
21308 H 123.02940047976698 152.59590033289834 47.58902082477644 H 0.0 **** 0.06
21309 H 123.5048209322204 152.71144545685985 45.87665634807024 H 0.0 **** 0.06
21310 H 122.64235596314596 151.26964924686 46.46484779289503 H 0.0 **** 0.06
21311 C 42.188071528342704 0.40128695354397337 177.10900759334774 C 0.0 **** -0.24
21312 H 42.7264714688575 1.3299112000289597 177.29867276753427 H 0.0 **** 0.06
21313 H 42.433022867423446 0.03818866923288056 176.11030199653004 H 0.0 **** 0.06
21314 H 41.115825155924625 0.583345242477975 177.17657861313836 H 0.0 **** 0.06
21315 H 42.47864354296341 -0.3442185700734228 177.84878375301247 H 0.0 **** 0.06
21316 C 75.84481920585841 42.728692610828176 100.52290793014168 C 0.0 **** -0.24
21317 H 75.65165319320624 42.61158385105141 101.58956242429696 H 0.0 **** 0.06
21318 H 75.98316966587322 43.785772590707325 100.29336608666694 H 0.0 **** 0.06
21319 H 74.9993799725845 42.34139725117551 99.95544151010989 H 0.0 **** 0.06
21320 H 76.74602205833861 42.17793797997979 100.2539021447871 H 0.0 **** 0.06
21321 C 75.1920255876239 85.76273337599666 106.57658290460385 C 0.0 **** -0.24
21322 H 74.66146394562656 85.95824491099789 105.64471277043678 H 0.0 **** 0.06
21323 H 76.26627560761837 85.76216377274231 106.38892107789827 H 0.0 **** 0.06
21324 H 74.89019974319449 84.79236396795146 106.96919938944954 H 0.0 **** 0.06
21325 H 74.95045552718831 86.54025694385724 107.30137209700347 H 0.0 **** 0.06
21326 C 121.98634848548717 127.27003495777755 114.47417386278886 C 0.0 **** -0.24
21327 H 122.36241185059247 126.3719384664672 113.98371447400274 H 0.0 **** 0.06
21328 H 122.56541503348329 128.13329670840943 114.1443201425364 H 0.0 **** 0.06
21329 H 122.08045299807621 127.160430103097 115.55467674849695 H 0.0 **** 0.06
21330 H 120.93781766970851 127.41492238720845 114.21343235932869 H 0.0 **** 0.06
21331 C 151.86611605247072 98.90953586229978 51.119803283122394 C 0.0 **** -0.24
21332 H 151.63470722865432 99.9711585944529 51.214050447531065 H 0.0 **** 0.06
21333 H 151.50240117528782 98.37843627273105 52.00032592120863 H 0.0 **** 0.06
21334 H 152.945038761156 98.77961328736609 51.03656704703269 H 0.0 **** 0.06
21335 H 151.38162253964967 98.51063751188991 50.22905725588549 H 0.0 **** 0.06
21336 C 70.19399458645574 89.1945821384911 86.5191721733131 C 0.0 **** -0.24
21337 H 69.73422679095856 90.18192314125712 86.50626328017889 H 0.0 **** 0.06
21338 H 70.39351411239558 88.90057981941995 87.54982389330367 H 0.0 **** 0.06
21339 H 71.12945733161179 89.22156109935544 85.96068766864117 H 0.0 **** 0.06
21340 H 69.51800764092101 88.47272725810923 86.0597131763438 H 0.0 **** 0.06
21341 C 67.23063988477739 121.66320898207454 76.51052513528873 C 0.0 **** -0.24
21342 H 66.1896871089964 121.3496558218066 76.5981215611074 H 0.0 **** 0.06
21343 H 67.83655593481524 121.10989592874273 77.22821641653213 H 0.0 **** 0.06
21344 H 67.30633432678854 122.73022077112188 76.7162811049997 H 0.0 **** 0.06
21345 H 67.58696983517063 121.46129792563227 75.50082654985955 H 0.0 **** 0.06
21346 C 168.5196516071976 130.68487426197555 155.14446308627043 C 0.0 **** -0.24
21347 H 167.8087088861355 130.6277346961848 154.3208710430948 H 0.0 **** 0.06
21348 H 169.21290315280567 131.50762947465722 154.9694016129868 H 0.0 **** 0.06
21349 H 169.07514788666947 129.7491353502814 155.20953953112377 H 0.0 **** 0.06
21350 H 167.98170245369954 130.8543774618272 156.07726892903995 H 0.0 **** 0.06
21351 C 145.9355540609269 104.09378911362437 3.8287322861671385 C 0.0 **** -0.24
21352 H 145.01765876351448 104.66855529875887 3.95196547143766 H 0.0 **** 0.06
21353 H 146.6358261745451 104.6555433727623 3.209202203293927 H 0.0 **** 0.06
21354 H 145.70654125092494 103.14290325516292 3.3477618329917505 H 0.0 **** 0.06
21355 H 146.38161404419174 103.90938652534557 4.805611766634854 H 0.0 **** 0.06
21356 C 69.5167252432243 168.68519823775478 30.45557412076245 C 0.0 **** -0.24
21357 H 69.89442404640442 167.66755616458855 30.35692532306534 H 0.0 **** 0.06
21358 H 70.06631095543634 169.3430962512438 29.782610449076813 H 0.0 **** 0.06
21359 H 69.64867017864833 169.0244649270457 31.483434535981914 H 0.0 **** 0.06
21360 H 68.45749579240805 168.70567560814106 30.19932617492566 H 0.0 **** 0.06
21361 C 97.65343143328032 78.16687793222808 105.71557804393792 C 0.0 **** -0.24
21362 H 98.44951007564076 77.85409578997206 106.39171967531867 H 0.0 **** 0.06
21363 H 97.55384012904575 77.43736285347349 104.9110653242811 H 0.0 **** 0.06
21364 H 97.8965981212835 79.14162299142073 105.29456455803891 H 0.0 **** 0.06
21365 H 96.714781956247 78.23188912357732 106.26620139679652 H 0.0 **** 0.06
21366 C 166.83203799812796 64.84339134518359 33.47619562771958 C 0.0 **** -0.24
21367 H 167.83211147419198 64.41070004445794 33.45868467610565 H 0.0 **** 0.06
21368 H 166.86116500421616 65.80355358933491 33.991648297009334 H 0.0 **** 0.06
21369 H 166.15409054332164 64.17002174346754 34.001277532999026 H 0.0 **** 0.06
21370 H 166.48129565057835 64.98867204112338 32.45500433321169 H 0.0 **** 0.06
21371 C 13.226791543672277 75.97916833948698 31.443818816105022 C 0.0 **** -0.24
21372 H 12.280429857172258 76.11456168104114 31.967305741782383 H 0.0 **** 0.06
21373 H 13.402775796372588 74.91631305303858 31.280027698493654 H 0.0 **** 0.06
21374 H 14.037149524410367 76.39360912093737 32.0442204860277 H 0.0 **** 0.06
21375 H 13.187072047854393 76.49333838723791 30.482939055180736 H 0.0 **** 0.06
21376 C 58.84676812956047 163.22202735439478 131.8946822952878 C 0.0 **** -0.24
21377 H 58.888015280822856 163.53176930393946 130.85018530002486 H 0.0 **** 0.06
21378 H 57.817997604301695 163.28250368425395 132.25016533332428 H 0.0 **** 0.06
21379 H 59.47780222730239 163.87855072271407 132.49244174442828 H 0.0 **** 0.06
21380 H 59.202866494992975 162.19587952774904 131.98302222146674 H 0.0 **** 0.06
21381 C 146.5536963577537 132.118562083016 109.59121906992738 C 0.0 **** -0.24
21382 H 146.30672013287943 131.10063612914172 109.89171340317165 H 0.0 **** 0.06
21383 H 146.02057150949125 132.8243120817387 110.22919887280125 H 0.0 **** 0.06
21384 H 146.26058686024044 132.27284897218834 108.55374777338096 H 0.0 **** 0.06
21385 H 147.62846768837187 132.27611555611986 109.69360027405435 H 0.0 **** 0.06
21386 C 69.71979214946703 22.213261327278104 113.55034424535454 C 0.0 **** -0.24
21387 H 69.42228691743179 22.931557433868505 112.78729269473926 H 0.0 **** 0.06
21388 H 70.51668261951669 21.579007890375365 113.16165088682173 H 0.0 **** 0.06
21389 H 68.86312213255115 21.59547175003273 113.82022735072347 H 0.0 **** 0.06
21390 H 70.07588301677411 22.74628251146804 114.43198707395653 H 0.0 **** 0.06
21391 C 69.84076712957605 102.70857735445314 125.39847982489998 C 0.0 **** -0.24
21392 H 69.28763465614516 102.18258815538898 124.6203325423758 H 0.0 **** 0.06
21393 H 69.84288158942653 103.77703885598568 125.18294349097683 H 0.0 **** 0.06
21394 H 70.867183966843 102.34099369103869 125.42495850763918 H 0.0 **** 0.06
21395 H 69.36617316344461 102.53282913210383 126.3629254936139 H 0.0 **** 0.06
21396 C 19.40757952961482 176.85025744943843 8.235436458827536 C 0.0 **** -0.24
21397 H 20.489561405384848 176.71788309616596 8.230680673488507 H 0.0 **** 0.06
21398 H 19.15648051420638 177.8015273786362 7.76536604922552 H 0.0 **** 0.06
21399 H 19.04420290777051 176.84434579692154 9.262701189900156 H 0.0 **** 0.06
21400 H 18.93984956760906 176.0359421268837 7.680512460599374 H 0.0 **** 0.06
21401 C 71.37642700013578 126.16256672272914 40.18161984326176 C 0.0 **** -0.24
21402 H 72.05030913955275 126.62108516053985 40.90506303958054 H 0.0 **** 0.06
21403 H 71.59915601347633 125.0978147428151 40.101980598537295 H 0.0 **** 0.06
21404 H 71.50942992018264 126.63614394852823 39.20968869295211 H 0.0 **** 0.06
21405 H 70.34643357239544 126.29453103239968 40.512463181585474 H 0.0 **** 0.06
21406 C 57.312290389242946 10.851842845696808 9.867212138310364 C 0.0 **** -0.24
21407 H 57.77091094683129 11.840952060728426 9.865085576887807 H 0.0 **** 0.06
21408 H 56.24650553039855 10.946798639896429 10.074859419248078 H 0.0 **** 0.06
21409 H 57.7793626185416 10.236442033816672 10.636577301130991 H 0.0 **** 0.06
21410 H 57.453521045049925 10.3850338215791 8.892838196075118 H 0.0 **** 0.06
21411 C 150.30697882921788 100.26881875569217 110.00732984299242 C 0.0 **** -0.24
21412 H 150.84532744385342 99.3212722270672 109.99563792370628 H 0.0 **** 0.06
21413 H 150.9832449062235 101.06644513869662 110.31707932840192 H 0.0 **** 0.06
21414 H 149.47463807909708 100.20456711961816 110.70975494291258 H 0.0 **** 0.06
21415 H 149.9244650369011 100.48208257690601 109.00951518689675 H 0.0 **** 0.06
21416 C 178.0655469979666 152.7783165196007 68.23017940250973 C 0.0 **** -0.24
21417 H 178.22241091116277 151.86768266553915 68.80831698114312 H 0.0 **** 0.06
21418 H 177.75558795536892 152.51689566409004 67.2182782720639 H 0.0 **** 0.06
21419 H 178.99464181922878 153.3475247054249 68.18987759437175 H 0.0 **** 0.06
21420 H 177.28991232442803 153.37981524074272 68.70402062145484 H 0.0 **** 0.06
21421 C 138.83695045292876 116.93511953307558 62.77216134952448 C 0.0 **** -0.24
21422 H 138.26126167445136 116.03600561771316 62.9923248468091 H 0.0 **** 0.06
21423 H 138.63834003515626 117.68859689938017 63.53432414234426 H 0.0 **** 0.06
21424 H 138.54708070740975 117.32105450076381 61.795178197745955 H 0.0 **** 0.06
21425 H 139.90024061316058 116.69378784417006 62.76721839238104 H 0.0 **** 0.06
21426 C 143.4004135841757 105.24501459929174 99.21402799818014 C 0.0 **** -0.24
21427 H 143.70454964331572 104.75102311573592 100.13645524058774 H 0.0 **** 0.06
21428 H 143.02362324870256 106.24248897581809 99.44391778883107 H 0.0 **** 0.06
21429 H 142.61549755790998 104.66218486344336 98.73145395436114 H 0.0 **** 0.06
21430 H 144.25727132842093 105.32491844897753 98.54537223175043 H 0.0 **** 0.06
21431 C 10.662773752053084 1.1579815023780498 5.849402026727937 C 0.0 **** -0.24
21432 H 11.126573209894275 2.1372768443412156 5.975893565743277 H 0.0 **** 0.06
21433 H 10.168626571362921 0.8688574797664614 6.776857267030039 H 0.0 **** 0.06
21434 H 11.429048106074646 0.4234674057761936 5.601297163864423 H 0.0 **** 0.06
21435 H 9.92931543780574 1.2045724355101868 5.045249356466208 H 0.0 **** 0.06
21436 C 47.782625812833885 184.5703005670319 105.1678873126673 C 0.0 **** -0.24
21437 H 48.75025414606702 184.1491879357433 104.8946567717437 H 0.0 **** 0.06
21438 H 47.78418098303945 184.82715092402555 106.22785187495906 H 0.0 **** 0.06
21439 H 46.999603590762206 183.83891964387317 104.97138674670414 H 0.0 **** 0.06
21440 H 47.59842850984754 185.46797831221164 104.57759383901781 H 0.0 **** 0.06
21441 C 179.0207814701128 0.6195633385007326 127.18936020231205 C 0.0 **** -0.24
21442 H 178.06122279097866 0.1219420102798523 127.04818115502137 H 0.0 **** 0.06
21443 H 179.4375018614992 0.8883080712964215 126.21830265238522 H 0.0 **** 0.06
21444 H 179.7063283062422 -0.05332838188822109 127.70480238106678 H 0.0 **** 0.06
21445 H 178.87902760242105 1.519652788137293 127.78667432453399 H 0.0 **** 0.06
21446 C 85.2603483340212 38.42221588990424 132.73960665166658 C 0.0 **** -0.24
21447 H 84.3429302823998 37.844811809902126 132.61928605729605 H 0.0 **** 0.06
21448 H 85.12902816108996 39.14729101153438 133.54305948389236 H 0.0 **** 0.06
21449 H 85.4847710791001 38.945425836458185 131.81010455580974 H 0.0 **** 0.06
21450 H 86.08177691475647 37.75058229426509 132.98629213622644 H 0.0 **** 0.06
21451 C 84.04250844292226 100.25515318877302 35.292462713371165 C 0.0 **** -0.24
21452 H 84.13071633372658 99.58926096772717 34.43455872183701 H 0.0 **** 0.06
21453 H 84.76863176715237 99.96589476766547 36.05293419556692 H 0.0 **** 0.06
21454 H 83.03662277193334 100.18285835062176 35.70543465376852 H 0.0 **** 0.06
21455 H 84.23389879918707 101.28058958712984 34.977891158644155 H 0.0 **** 0.06
21456 C 58.02365259368494 111.58775659479153 87.17532179210248 C 0.0 **** -0.24
21457 H 57.55768580843693 112.0029977116069 88.06862248010911 H 0.0 **** 0.06
21458 H 57.90222224786359 110.50444539262719 87.17289715838943 H 0.0 **** 0.06
21459 H 59.08527310413649 111.83555534796926 87.17231487212202 H 0.0 **** 0.06
21460 H 57.55007465832358 112.00950259729473 86.28998425251673 H 0.0 **** 0.06
21461 C 18.015560401213207 97.19095637303826 54.07870885946576 C 0.0 **** -0.24
21462 H 18.133627943921994 97.76109822513081 54.999948066580316 H 0.0 **** 0.06
21463 H 18.14854491762776 96.12949031469441 54.28889996369588 H 0.0 **** 0.06
21464 H 18.762175593005736 97.51380027125043 53.35274470715882 H 0.0 **** 0.06
21465 H 17.017893150297255 97.35943668107757 53.67324270042809 H 0.0 **** 0.06
21466 C 158.96427760115733 158.22279836582942 67.38940218360135 C 0.0 **** -0.24
21467 H 159.49691940752376 157.6709592361634 66.61536431232511 H 0.0 **** 0.06
21468 H 159.6696440485793 158.84407555163892 67.94254613493987 H 0.0 **** 0.06
21469 H 158.48637891255538 157.5190930131369 68.07214666248166 H 0.0 **** 0.06
21470 H 158.20545673215082 158.8552668825236 66.92957742712335 H 0.0 **** 0.06
21471 C 128.30534007212702 76.95229913968825 123.80381346670629 C 0.0 **** -0.24
21472 H 127.9097592680932 77.1126733083347 124.80649552185457 H 0.0 **** 0.06
21473 H 127.59299424048511 76.36751787818775 123.22155779811828 H 0.0 **** 0.06
21474 H 129.25134538459633 76.41423017580723 123.86792363196253 H 0.0 **** 0.06
21475 H 128.4672057455423 77.91559436600909 123.31870604800031 H 0.0 **** 0.06
21476 C 156.7157309095593 21.2857767309946 79.4957573037837 C 0.0 **** -0.24
21477 H 157.42181639979984 22.11164183839935 79.58101844710865 H 0.0 **** 0.06
21478 H 155.99734888989173 21.336772611523088 80.31380439997184 H 0.0 **** 0.06
21479 H 157.25641433906523 20.33984347832478 79.54507372919232 H 0.0 **** 0.06
21480 H 156.1893648920241 21.353911409775037 78.54332522622985 H 0.0 **** 0.06
21481 C 69.81809894332213 4.493610587178978 108.74351698729491 C 0.0 **** -0.24
21482 H 69.40712568287518 4.695134229606879 107.75383391391027 H 0.0 **** 0.06
21483 H 69.59948707500342 5.331676125676552 109.4046927185283 H 0.0 **** 0.06
21484 H 70.89704511457433 4.360265773085075 108.66821977420203 H 0.0 **** 0.06
21485 H 69.36667622726179 3.58598972981315 109.14535812128146 H 0.0 **** 0.06
21486 C 103.12086484045436 113.48360690973692 173.97418150298287 C 0.0 **** -0.24
21487 H 103.69589365326785 113.94564172895434 173.17147354694342 H 0.0 **** 0.06
21488 H 103.7981417712855 112.98133202457825 174.66398164066896 H 0.0 **** 0.06
21489 H 102.42723467538504 112.75542151766484 173.5508250881032 H 0.0 **** 0.06
21490 H 102.56017651337525 114.25081388868671 174.50753635514062 H 0.0 **** 0.06
21491 C 45.71605921681166 105.70991493963999 143.1312222816308 C 0.0 **** -0.24
21492 H 46.317619609328204 106.42732262655937 143.68994017400536 H 0.0 **** 0.06
21493 H 44.66122878503529 105.86049341482305 143.36400389921107 H 0.0 **** 0.06
21494 H 46.007676494574596 104.69765752277459 143.40794164034133 H 0.0 **** 0.06
21495 H 45.876999549439574 105.85538981766786 142.06279416294046 H 0.0 **** 0.06
21496 C 29.93499337788886 28.744794016548894 144.3988780302741 C 0.0 **** -0.24
21497 H 29.05653112902283 28.326919333347803 143.9067894217058 H 0.0 **** 0.06
21498 H 30.342422737304233 28.011680852216713 145.09641069304436 H 0.0 **** 0.06
21499 H 29.65232948654112 29.646277073423576 144.94283372214997 H 0.0 **** 0.06
21500 H 30.687350433366063 28.99115416494101 143.6500410076273 H 0.0 **** 0.06
21501 C 126.72154457225035 51.37259111991624 74.03215857824608 C 0.0 **** -0.24
21502 H 126.35396565132136 51.06074272725475 75.00873557459289 H 0.0 **** 0.06
21503 H 125.89583291425949 51.390139601570866 73.32111732654317 H 0.0 **** 0.06
21504 H 127.48136999580116 50.669978660760805 73.68811141220618 H 0.0 **** 0.06
21505 H 127.15644436811338 52.36867077240342 74.10917049589011 H 0.0 **** 0.06
21506 C 1.7166985976434432 12.38748183534392 165.82037003589875 C 0.0 **** -0.24
21507 H 1.7426176283620123 11.299932604757373 165.74567558719417 H 0.0 **** 0.06
21508 H 1.636212212963045 12.677954735727752 166.86732981136734 H 0.0 **** 0.06
21509 H 0.8563329282903851 12.767975998252382 165.26946942784045 H 0.0 **** 0.06
21510 H 2.6319424025944613 12.802377524738318 165.39654372634502 H 0.0 **** 0.06
21511 C 147.63799166664944 123.55570562483204 9.854349997455387 C 0.0 **** -0.24
21512 H 147.04363653035972 123.58958205255034 10.76663815783703 H 0.0 **** 0.06
21513 H 147.36158458963132 124.39129390173015 9.210249262768968 H 0.0 **** 0.06
21514 H 147.4496945283014 122.61762048946848 9.333044129556136 H 0.0 **** 0.06
21515 H 148.695842286711 123.62612155778656 10.106906956505824 H 0.0 **** 0.06
21516 C 92.78133772569446 42.91901439637911 131.64240537302516 C 0.0 **** -0.24
21517 H 93.35246818848331 43.111654208909584 130.73355649114785 H 0.0 **** 0.06
21518 H 92.0053642368999 42.18178101393852 131.43327508016193 H 0.0 **** 0.06
21519 H 92.32070092195919 43.845193658364224 131.9851940222179 H 0.0 **** 0.06
21520 H 93.44818499577813 42.53689422439075 132.41563513687873 H 0.0 **** 0.06
21521 C 17.756028629876546 77.64714493163598 3.520959235573841 C 0.0 **** -0.24
21522 H 18.25697432857843 78.61226056345544 3.6018208948320236 H 0.0 **** 0.06
21523 H 16.821436596138888 77.67568404944882 4.081528252414159 H 0.0 **** 0.06
21524 H 18.400967781518503 76.86863761846928 3.9284739186335216 H 0.0 **** 0.06
21525 H 17.545601126031123 77.43365234380536 2.4732438493407116 H 0.0 **** 0.06
21526 C 90.28442426900756 17.664730818564742 31.075486375367632 C 0.0 **** -0.24
21527 H 90.37840848097022 18.043018073048835 32.09320985164578 H 0.0 **** 0.06
21528 H 89.77784710828547 18.406809667739182 30.457827940310096 H 0.0 **** 0.06
21529 H 89.70461468454238 16.742064640736743 31.083630074743297 H 0.0 **** 0.06
21530 H 91.27645618177382 17.467636348485946 30.667981970290782 H 0.0 **** 0.06
21531 C 183.69503447527518 55.72621011403973 89.70829149711541 C 0.0 **** -0.24
21532 H 183.3836214191412 56.556186515342006 89.07389142624261 H 0.0 **** 0.06
21533 H 183.30193849999705 54.7928957257497 89.30460946710251 H 0.0 **** 0.06
21534 H 183.30992112237232 55.877906647383384 90.71698086809361 H 0.0 **** 0.06
21535 H 184.78304244641583 55.681599580111424 89.73827286366962 H 0.0 **** 0.06
21536 C 100.31376332999156 26.02983755922662 130.80654926873996 C 0.0 **** -0.24
21537 H 101.10178356589358 26.776397233977434 130.70742750367003 H 0.0 **** 0.06
21538 H 99.65452931523197 26.305674908902176 131.62988069933783 H 0.0 **** 0.06
21539 H 100.75920304267834 25.055925244488492 131.00668322622624 H 0.0 **** 0.06
21540 H 99.73981055392403 25.98356612459429 129.88046581927364 H 0.0 **** 0.06
21541 C 75.89680278153891 77.12074084689709 129.84750264109135 C 0.0 **** -0.24
21542 H 76.33145556680344 78.07315930869686 130.1504653217932 H 0.0 **** 0.06
21543 H 75.63669035978184 77.16054681430569 128.78878104102017 H 0.0 **** 0.06
21544 H 74.99897058394689 76.92749876429866 130.43519152437034 H 0.0 **** 0.06
21545 H 76.61956972207612 76.32228695134313 130.01490540590243 H 0.0 **** 0.06
21546 C 50.355197896210825 158.74614946793713 18.50917497834221 C 0.0 **** -0.24
21547 H 50.090804977865844 159.33780361571422 19.38588252880755 H 0.0 **** 0.06
21548 H 51.29687292063005 158.2267818154428 18.691963921508197 H 0.0 **** 0.06
21549 H 50.46456086920216 159.40408570329072 17.647020111286082 H 0.0 **** 0.06
21550 H 49.56923652591303 158.0163951556828 18.312979290670434 H 0.0 **** 0.06
21551 C 118.03613528595446 77.51425324802474 38.018649606299476 C 0.0 **** -0.24
21552 H 116.97998725561769 77.24516653684985 38.04060521942107 H 0.0 **** 0.06
21553 H 118.17867645162107 78.46654306661094 38.53042446410507 H 0.0 **** 0.06
21554 H 118.36640698460036 77.60482094882906 36.98399775564404 H 0.0 **** 0.06
21555 H 118.61903123539696 76.74161834810349 38.52028990923033 H 0.0 **** 0.06
21556 C 182.3756163651337 141.20821497039907 61.94644321612654 C 0.0 **** -0.24
21557 H 182.689483799777 140.76770291501379 62.8932841477035 H 0.0 **** 0.06
21558 H 181.32172600638575 140.984934329196 61.774247740468326 H 0.0 **** 0.06
21559 H 182.97256191726248 140.79107439455765 61.13636416236402 H 0.0 **** 0.06
21560 H 182.51713978731453 142.28860118908278 61.984576113765385 H 0.0 **** 0.06
21561 C 83.1926269212254 65.29748715101653 182.09216457809373 C 0.0 **** -0.24
21562 H 83.04056626054462 64.2209359833158 182.1742165110181 H 0.0 **** 0.06
21563 H 82.23221196267427 65.80677788194112 182.16846273983478 H 0.0 **** 0.06
21564 H 83.65006948514277 65.52622082558133 181.12980780422788 H 0.0 **** 0.06
21565 H 83.84776895972897 65.63303202024744 182.8958603564233 H 0.0 **** 0.06
21566 C 43.67308130049109 161.48834746896517 39.78345736806838 C 0.0 **** -0.24
21567 H 43.53741423765857 161.93854821544807 38.800439523847885 H 0.0 **** 0.06
21568 H 42.69966318811893 161.32280423788526 40.24513147399472 H 0.0 **** 0.06
21569 H 44.263820916196636 162.15622956575191 40.410031835243515 H 0.0 **** 0.06
21570 H 44.19277086169005 160.53559683379083 39.678612875074876 H 0.0 **** 0.06
21571 C 50.32326350177027 80.99645509814758 144.66790019423027 C 0.0 **** -0.24
21572 H 51.068297749649986 81.69896926399515 145.041013008814 H 0.0 **** 0.06
21573 H 50.823296705249675 80.17224612329866 144.1588258042729 H 0.0 **** 0.06
21574 H 49.66123165782554 81.50726744464603 143.96786449782502 H 0.0 **** 0.06
21575 H 49.73919821435993 80.60779536011553 145.50172253450532 H 0.0 **** 0.06
21576 C 25.64416411653258 178.58848330994977 177.46345176240737 C 0.0 **** -0.24
21577 H 25.893881388250023 179.64815093504933 177.40473050066242 H 0.0 **** 0.06
21578 H 24.631178254734664 178.4758230807176 177.84883684422843 H 0.0 **** 0.06
21579 H 26.345532916629978 178.08817038308464 178.13116962505472 H 0.0 **** 0.06
21580 H 25.70832059757285 178.14453514380463 176.47023863096598 H 0.0 **** 0.06
21581 C 38.3036958867105 66.3820012939934 54.626733830422324 C 0.0 **** -0.24
21582 H 38.97642725326115 65.79514095856847 54.0016675875616 H 0.0 **** 0.06
21583 H 37.56263683033113 66.87656584429607 53.996960220306164 H 0.0 **** 0.06
21584 H 38.87656221068478 67.13209815519278 55.17194776672312 H 0.0 **** 0.06
21585 H 37.79894729261986 65.72457748446081 55.33440688109306 H 0.0 **** 0.06
21586 C 124.77369082899618 32.48225502695118 89.25899339079507 C 0.0 **** -0.24
21587 H 124.48483297495115 32.04804131780031 90.21590558492392 H 0.0 **** 0.06
21588 H 125.09814618300935 31.689129302686354 88.5843292474463 H 0.0 **** 0.06
21589 H 125.59184763971119 33.186063438108334 89.41226608760206 H 0.0 **** 0.06
21590 H 123.92105882465357 33.00438788825892 88.82514169165654 H 0.0 **** 0.06
21591 C 56.5288212723366 106.30409790441922 142.37362301137853 C 0.0 **** -0.24
21592 H 55.4600982403571 106.09160084481215 142.3362671677379 H 0.0 **** 0.06
21593 H 56.754214556862394 106.87392075001708 143.27559982864267 H 0.0 **** 0.06
21594 H 56.813475177826476 106.88498493030295 141.496137519314 H 0.0 **** 0.06
21595 H 57.08550508958996 105.36702355753607 142.38562969340921 H 0.0 **** 0.06
21596 C 95.86431270535763 107.70106728467034 64.67896961202463 C 0.0 **** -0.24
21597 H 95.0567141613567 108.39510078063167 64.91078300658866 H 0.0 **** 0.06
21598 H 96.68066442834834 108.24068758182771 64.19758287205981 H 0.0 **** 0.06
21599 H 95.49556505078505 106.92617352377432 64.00705578951228 H 0.0 **** 0.06
21600 H 96.22423690655984 107.24155310059321 65.59980383184863 H 0.0 **** 0.06
21601 C 160.72085364485545 183.28618301417941 117.62103755763737 C 0.0 **** -0.24
21602 H 161.2265988133571 184.05261125619995 118.20849048534454 H 0.0 **** 0.06
21603 H 161.37803720289705 182.95141826022757 116.81866003707601 H 0.0 **** 0.06
21604 H 159.8071438316992 183.69941594855266 117.19501730195567 H 0.0 **** 0.06
21605 H 160.47244901065136 182.44144460962337 118.26380231787998 H 0.0 **** 0.06
21606 C 167.41114185536767 93.30038112720369 81.79316605088368 C 0.0 **** -0.24
21607 H 168.35248262933519 93.4872268702825 81.27527165323788 H 0.0 **** 0.06
21608 H 167.19897966254618 94.12665446227551 82.47045764424156 H 0.0 **** 0.06
21609 H 167.48969348866623 92.3737337485711 82.36255138887172 H 0.0 **** 0.06
21610 H 166.60693278275372 93.21187510509644 81.06370270005296 H 0.0 **** 0.06
21611 C 163.54076521830197 158.862211082399 139.703483088976 C 0.0 **** -0.24
21612 H 163.93177531285858 158.9943408614368 140.71286023233785 H 0.0 **** 0.06
21613 H 162.59894801793365 159.40178312879306 139.60509241591365 H 0.0 **** 0.06
21614 H 163.37378380443207 157.80157471421958 139.51553877153822 H 0.0 **** 0.06
21615 H 164.25986019262027 159.24999786013427 138.98184661578387 H 0.0 **** 0.06
21616 C 50.32558722894379 25.38050363602582 137.51557498154392 C 0.0 **** -0.24
21617 H 50.912844346647375 26.28631623152853 137.66161931733188 H 0.0 **** 0.06
21618 H 50.978913155007604 24.509324404922893 137.577706962577 H 0.0 **** 0.06
21619 H 49.85146854183668 25.41000099877985 136.5334192946067 H 0.0 **** 0.06
21620 H 49.55841769951047 25.315728580165455 138.28753254666145 H 0.0 **** 0.06
21621 C 161.26673976731578 15.863469147639684 49.35094096235785 C 0.0 **** -0.24
21622 H 160.49758829412698 16.233858093902633 50.02711945287041 H 0.0 **** 0.06
21623 H 160.9924886499919 16.10146741785193 48.323018046646695 H 0.0 **** 0.06
21624 H 161.35805938297844 14.782584802531616 49.461521895182585 H 0.0 **** 0.06
21625 H 162.2192793914577 16.334682087815068 49.591727120846755 H 0.0 **** 0.06
21626 C 7.528225427304193 152.24539781105068 99.80206024776358 C 0.0 **** -0.24
21627 H 8.234338133546288 152.5925290161919 99.04799650644749 H 0.0 **** 0.06
21628 H 8.063531172215406 152.01562871102777 100.72306853817769 H 0.0 **** 0.06
21629 H 7.024475705997872 151.34845669212726 99.44054229253523 H 0.0 **** 0.06
21630 H 6.790028264614463 153.02356152342279 99.99368103599626 H 0.0 **** 0.06
21631 C 163.33858258547158 74.97299066557223 147.31669055706504 C 0.0 **** -0.24
21632 H 162.53198987012294 75.20860742001796 148.0109716964942 H 0.0 **** 0.06
21633 H 164.29717891996853 75.20365589291535 147.78275601809383 H 0.0 **** 0.06
21634 H 163.22203053854287 75.566697851871 146.41055163987716 H 0.0 **** 0.06
21635 H 163.30259872677493 73.9138109268549 147.06473268345147 H 0.0 **** 0.06
21636 C 79.75997863652651 48.69054017436548 3.682826111600967 C 0.0 **** -0.24
21637 H 80.58011276909428 48.56927232216333 4.390436508830767 H 0.0 **** 0.06
21638 H 80.14815315800791 48.642037131218274 2.6652395702736555 H 0.0 **** 0.06
21639 H 79.28249284873482 49.65794516009112 3.843855056583884 H 0.0 **** 0.06
21640 H 79.03028884000457 47.895750511987075 3.83256427815423 H 0.0 **** 0.06
21641 C 142.97565994553776 177.91940077943582 115.4714513820535 C 0.0 **** -0.24
21642 H 143.27176567244658 177.8984473389325 116.5205322795709 H 0.0 **** 0.06
21643 H 141.88764386336072 177.942321888138 115.40241505209418 H 0.0 **** 0.06
21644 H 143.35343035507725 177.02817219079327 114.96969496714128 H 0.0 **** 0.06
21645 H 143.38897018455646 178.8078227401106 114.99477810777493 H 0.0 **** 0.06
21646 C 115.4721490050927 129.3176603127141 144.72260978703574 C 0.0 **** -0.24
21647 H 115.26724578922419 129.74079405195488 145.70599062534737 H 0.0 **** 0.06
21648 H 116.51953860132666 129.4771381415241 144.46884771701747 H 0.0 **** 0.06
21649 H 114.83971135723844 129.80502668941557 143.97953304919386 H 0.0 **** 0.06
21650 H 115.25921599488699 128.24850622455858 144.73611700009116 H 0.0 **** 0.06
21651 C 176.6155256690242 74.85986986279033 184.24277358724794 C 0.0 **** -0.24
21652 H 176.40994532510365 73.86371868367877 184.63538399098928 H 0.0 **** 0.06
21653 H 175.68632567863176 75.31352081998625 183.89870449885245 H 0.0 **** 0.06
21654 H 177.31289537763288 74.78363021492959 183.40830646507732 H 0.0 **** 0.06
21655 H 177.0537900126103 75.47649977780753 185.02674504529915 H 0.0 **** 0.06
21656 C 135.00890109602426 63.5165848090862 55.523032237717985 C 0.0 **** -0.24
21657 H 135.72310486256714 62.7373406217599 55.78947143237335 H 0.0 **** 0.06
21658 H 134.4562377147268 63.82212983629117 56.412018070547646 H 0.0 **** 0.06
21659 H 134.31411791169916 63.13241359267164 54.77610307825495 H 0.0 **** 0.06
21660 H 135.54348091756367 64.37458914978882 55.11409537766167 H 0.0 **** 0.06
21661 C 126.76644138137823 95.90642799310358 95.65777555584032 C 0.0 **** -0.24
21662 H 126.56550090203717 96.01881398345456 94.59233026014596 H 0.0 **** 0.06
21663 H 126.04073245174897 96.48856028236646 96.22696440429792 H 0.0 **** 0.06
21664 H 127.77258363889143 96.2647340878752 95.87702627986096 H 0.0 **** 0.06
21665 H 126.68653580513404 94.85583271903529 95.9338534235128 H 0.0 **** 0.06
21666 C 25.358691009721383 147.54609188079877 108.06684563525774 C 0.0 **** -0.24
21667 H 26.104102846266926 148.33350158187113 107.96318041575365 H 0.0 **** 0.06
21668 H 25.798696129028485 146.58965198964864 107.78181996909437 H 0.0 **** 0.06
21669 H 24.508466576273236 147.76273043024605 107.42049317559405 H 0.0 **** 0.06
21670 H 25.024188965937014 147.49657216445672 109.10282175996967 H 0.0 **** 0.06
21671 C 89.0264825256556 47.367728184754114 23.72480436686294 C 0.0 **** -0.24
21672 H 89.99460620786407 47.617827038673354 23.292393185151468 H 0.0 **** 0.06
21673 H 88.38086412206754 48.24603838800364 23.701492477750833 H 0.0 **** 0.06
21674 H 89.16188820139551 47.042694831607776 24.75583635400588 H 0.0 **** 0.06
21675 H 88.56832564164436 46.56406721035043 23.1481322965368 H 0.0 **** 0.06
21676 C 85.35456596302504 109.14635333148404 6.353258612595283 C 0.0 **** -0.24
21677 H 84.5506249148516 109.70168559581448 6.837432399695047 H 0.0 **** 0.06
21678 H 86.01661989849521 108.73015573766575 7.111993408628251 H 0.0 **** 0.06
21679 H 85.9194410779615 109.81695891831772 5.705833241583633 H 0.0 **** 0.06
21680 H 84.93050843403142 108.33845390795783 5.757091611814076 H 0.0 **** 0.06
21681 C 43.41070029720231 29.859003202967358 135.73046686371316 C 0.0 **** -0.24
21682 H 44.00625786092084 30.111482871917588 134.85367410256504 H 0.0 **** 0.06
21683 H 43.94967731881718 29.1318712600073 136.33839226039635 H 0.0 **** 0.06
21684 H 42.458546319053255 29.434541996051166 135.41334570410947 H 0.0 **** 0.06
21685 H 43.228676198986534 30.75958228970012 136.31810615261958 H 0.0 **** 0.06
21686 C 44.251472442068774 74.84010287038814 170.04143173526376 C 0.0 **** -0.24
21687 H 43.375457289195424 74.6349945167666 169.42556129848253 H 0.0 **** 0.06
21688 H 44.90480194401687 75.54051951559774 169.52095363426895 H 0.0 **** 0.06
21689 H 44.78972961267351 73.91028417271167 170.2265338204684 H 0.0 **** 0.06
21690 H 43.93518712121926 75.27243758355348 170.98971893215062 H 0.0 **** 0.06
21691 C 29.068527525029893 60.51409524178379 88.03544679028543 C 0.0 **** -0.24
21692 H 28.20355825626997 60.71539276050461 87.4033361669811 H 0.0 **** 0.06
21693 H 29.96907585232404 60.49216397566393 87.42206592722566 H 0.0 **** 0.06
21694 H 28.941286132645033 59.55152564208255 88.53014946986475 H 0.0 **** 0.06
21695 H 29.158114833401655 61.29942411846258 88.78665585378506 H 0.0 **** 0.06
21696 C 162.43032616951035 5.389508061452233 96.72598261716563 C 0.0 **** -0.24
21697 H 161.76000744079954 6.014078601929327 97.31529388513947 H 0.0 **** 0.06
21698 H 162.4415180531958 5.741272427840329 95.69431167247028 H 0.0 **** 0.06
21699 H 162.0833248994328 4.356339676624941 96.75483716010338 H 0.0 **** 0.06
21700 H 163.437044665056 5.446681535354912 97.1402197881125 H 0.0 **** 0.06
21701 C 126.20411324425147 88.75049961818682 85.1880061285699 C 0.0 **** -0.24
21702 H 125.76711222670765 87.82453156682531 84.81600665433291 H 0.0 **** 0.06
21703 H 127.17683253223784 88.90581834596072 84.72095511289899 H 0.0 **** 0.06
21704 H 126.32633348272365 88.68686383476812 86.26859672081162 H 0.0 **** 0.06
21705 H 125.5466471656127 89.58554695915971 84.94498417497539 H 0.0 **** 0.06
21706 C 7.483962148888054 94.40747634574619 24.750727904066807 C 0.0 **** -0.24
21707 H 7.814759485204831 94.57188979935158 25.776466522842497 H 0.0 **** 0.06
21708 H 6.490534559832213 94.83715094154105 24.616147935179782 H 0.0 **** 0.06
21709 H 7.447651118050828 93.33694585299317 24.547097469023527 H 0.0 **** 0.06
21710 H 8.182410186488426 94.88477221480697 24.06336820534348 H 0.0 **** 0.06
21711 C 0.06332145753356144 145.10401136052013 35.212383982496135 C 0.0 **** -0.24
21712 H -0.44642669046339023 144.30860160649382 35.75551149730063 H 0.0 **** 0.06
21713 H -0.6704694230088819 145.8248339410074 34.8503713602488 H 0.0 **** 0.06
21714 H 0.6021090955488688 144.67775116110843 34.366668625505895 H 0.0 **** 0.06
21715 H 0.7673315037326702 145.60419450959384 35.876888322282014 H 0.0 **** 0.06
21716 C 18.58258451364084 9.305182262583024 179.73072307243825 C 0.0 **** -0.24
21717 H 19.280263361129492 8.514072629250613 180.008031874758 H 0.0 **** 0.06
21718 H 19.14021265217565 10.205956906405817 179.4711401308731 H 0.0 **** 0.06
21719 H 17.920721510295856 9.515481791856494 180.57108599749336 H 0.0 **** 0.06
21720 H 17.991233051468356 8.98319010351095 178.87334866769518 H 0.0 **** 0.06
21721 C 171.02602845065223 174.649448662419 173.8937995402968 C 0.0 **** -0.24
21722 H 170.07942274498396 174.21116631147154 174.2116353604052 H 0.0 **** 0.06
21723 H 171.5221472432413 173.97536728986262 173.19505865394783 H 0.0 **** 0.06
21724 H 171.66349816588678 174.8061131424516 174.76385871152507 H 0.0 **** 0.06
21725 H 170.83708105882226 175.6060032595509 173.40528487342146 H 0.0 **** 0.06
21726 C 72.61018604605601 2.639582553418059 165.11138922896654 C 0.0 **** -0.24
21727 H 72.02753693594536 3.377992665884733 165.66262955378764 H 0.0 **** 0.06
21728 H 73.63565665811365 2.99363866178507 165.0026800964119 H 0.0 **** 0.06
21729 H 72.16968860276961 2.492622073969592 164.1257808090599 H 0.0 **** 0.06
21730 H 72.60642188257248 1.6955839263150523 165.65575286747807 H 0.0 **** 0.06
21731 C 105.64122351110971 128.30506799199787 50.53383017186489 C 0.0 **** -0.24
21732 H 105.10195910701667 129.18829031446728 50.874877928831864 H 0.0 **** 0.06
21733 H 105.25846981994796 127.9986683745574 49.56074578235858 H 0.0 **** 0.06
21734 H 105.5023151820199 127.49560054524603 51.25118316540885 H 0.0 **** 0.06
21735 H 106.70299794974191 128.5373935638027 50.45055810191235 H 0.0 **** 0.06
21736 C 106.66525203090855 152.60077925017592 47.56845050490608 C 0.0 **** -0.24
21737 H 105.67511342654082 153.04006514444916 47.444976529616895 H 0.0 **** 0.06
21738 H 106.6698408347362 151.95728527788617 48.44868787858837 H 0.0 **** 0.06
21739 H 107.40090315093606 153.39503240939274 47.694318316515705 H 0.0 **** 0.06
21740 H 106.91327134014979 152.0119373049375 46.68567593850372 H 0.0 **** 0.06
21741 C 54.49870197973786 80.69370780327945 134.35363254247397 C 0.0 **** -0.24
21742 H 55.11211910468671 79.91642239170397 133.8994936339588 H 0.0 **** 0.06
21743 H 53.50777842929631 80.68539713026304 133.89921882930753 H 0.0 **** 0.06
21744 H 54.96481930072122 81.66544901326256 134.1916201370305 H 0.0 **** 0.06
21745 H 54.40914807750926 80.50726639943252 135.42434916802915 H 0.0 **** 0.06
21746 C 159.5905482338428 82.70189317458502 127.60188719805775 C 0.0 **** -0.24
21747 H 158.77997224035732 81.99450017147232 127.42749380667512 H 0.0 **** 0.06
21748 H 159.51487540109338 83.0993607828524 128.6144747296686 H 0.0 **** 0.06
21749 H 159.52179959842977 83.51942156383743 126.88426799542479 H 0.0 **** 0.06
21750 H 160.54745955385772 82.19344268758924 127.48209904253979 H 0.0 **** 0.06
21751 C 175.75804216397063 78.90826828298111 148.90502504559947 C 0.0 **** -0.24
21752 H 175.9012818331351 77.85648436246434 148.65590787870144 H 0.0 **** 0.06
21753 H 176.40419664404868 79.1755166166724 149.74102628521894 H 0.0 **** 0.06
21754 H 174.71703577867015 79.0756758297304 149.1813197817006 H 0.0 **** 0.06
21755 H 176.00766552821483 79.52305508906444 148.04059592315105 H 0.0 **** 0.06
21756 C 63.00779833137159 183.8604835562236 61.81669000333055 C 0.0 **** -0.24
21757 H 63.26900776517516 184.10225485818978 62.848064178719014 H 0.0 **** 0.06
21758 H 62.817251464863034 184.78154807611477 61.265612503046185 H 0.0 **** 0.06
21759 H 62.11315708473464 183.23853372796685 61.80592920177253 H 0.0 **** 0.06
21760 H 63.83213570205575 183.32153162129111 61.35033706924338 H 0.0 **** 0.06
21761 C 131.52878857057777 163.22318782088837 150.5525651404721 C 0.0 **** -0.24
21762 H 131.59466915766836 163.06747643960716 149.4760666217878 H 0.0 **** 0.06
21763 H 132.43973453268234 162.86037836273218 151.0280818081663 H 0.0 **** 0.06
21764 H 130.67087706285344 162.67789684338496 150.94596564681802 H 0.0 **** 0.06
21765 H 131.40903543421263 164.28646145228473 150.7587294362771 H 0.0 **** 0.06
21766 C 127.4952126365269 18.58289931054904 44.10205553364875 C 0.0 **** -0.24
21767 H 127.59770357742644 18.03140139661548 43.16753318596335 H 0.0 **** 0.06
21768 H 127.23974895856492 19.620203920775737 43.885452625132984 H 0.0 **** 0.06
21769 H 128.43822683777546 18.54725389044603 44.64849675578711 H 0.0 **** 0.06
21770 H 126.70746278860253 18.132822332119588 44.704805243221585 H 0.0 **** 0.06
21771 C 183.84906011022525 174.05265212576242 2.7947085712731408 C 0.0 **** -0.24
21772 H 183.05569207645132 173.48125088209684 3.2760807077812544 H 0.0 **** 0.06
21773 H 183.80078150391512 173.90360875672684 1.7162580155487532 H 0.0 **** 0.06
21774 H 184.8163331719432 173.71328661571613 3.166387543485044 H 0.0 **** 0.06
21775 H 183.72367422462008 175.1114319569711 3.0214794102377667 H 0.0 **** 0.06
21776 C 122.52962658295623 136.22464697071894 25.903102645781274 C 0.0 **** -0.24
21777 H 122.39755750323859 137.14101039198937 26.478460103360632 H 0.0 **** 0.06
21778 H 121.63178216462306 136.03379481284497 25.314485418547378 H 0.0 **** 0.06
21779 H 122.70462134953557 135.3913537052727 26.583166990889012 H 0.0 **** 0.06
21780 H 123.38439923840924 136.33602885569303 25.236157265417262 H 0.0 **** 0.06
21781 C 33.76102735605042 44.73645080413962 174.2322172171891 C 0.0 **** -0.24
21782 H 33.832126409577484 45.5621808934082 173.5231480061109 H 0.0 **** 0.06
21783 H 33.4066531250204 45.112023222441564 175.19214827005044 H 0.0 **** 0.06
21784 H 34.74381332800169 44.282711332931484 174.35960475855313 H 0.0 **** 0.06
21785 H 33.06327323199969 43.99119678704983 173.85236072142033 H 0.0 **** 0.06
21786 C 96.90219912718118 3.6619137690743173 91.49877359297271 C 0.0 **** -0.24
21787 H 96.64810410463821 2.6041531210906896 91.43258079172806 H 0.0 **** 0.06
21788 H 96.3023641899847 4.131059215787559 92.27970829069399 H 0.0 **** 0.06
21789 H 96.6970784758085 4.144375376801378 90.54368477386573 H 0.0 **** 0.06
21790 H 97.95982685660431 3.7665869625130597 91.74045616957052 H 0.0 **** 0.06
21791 C 176.2470193108665 39.03645878802797 86.86767927292226 C 0.0 **** -0.24
21792 H 176.36751778911596 38.87787734291888 87.93891005245479 H 0.0 **** 0.06
21793 H 177.19183219618063 38.83271142061102 86.36301601469808 H 0.0 **** 0.06
21794 H 175.95236369255358 40.070413539647575 86.68467371865648 H 0.0 **** 0.06
21795 H 175.47781100970465 38.366743687152564 86.4846210431175 H 0.0 **** 0.06
21796 C 138.4805003405288 112.6576748901487 97.29719563853114 C 0.0 **** -0.24
21797 H 138.61938801666747 112.8551564759979 96.23395831026953 H 0.0 **** 0.06
21798 H 138.15359760090064 111.62775778464028 97.43568998873262 H 0.0 **** 0.06
21799 H 137.72626933723961 113.33643702114354 97.69595363342994 H 0.0 **** 0.06
21800 H 139.4231984787749 112.81462802492554 97.82143727926005 H 0.0 **** 0.06
21801 C 30.21921536416562 145.52011082349202 174.2525902563875 C 0.0 **** -0.24
21802 H 30.082600830431716 144.50799254563046 174.63366298960264 H 0.0 **** 0.06
21803 H 29.62582963621753 145.65049620857945 173.3472238059486 H 0.0 **** 0.06
21804 H 31.271824995431103 145.6837224715589 174.02380535478818 H 0.0 **** 0.06
21805 H 29.89542908898659 146.23774066366676 175.00627999241297 H 0.0 **** 0.06
21806 C 97.4776358045058 70.27978659492895 33.628095862127225 C 0.0 **** -0.24
21807 H 97.93292457829939 69.30114861757845 33.77711661017628 H 0.0 **** 0.06
21808 H 98.25851585071659 71.02383048381513 33.473472487991216 H 0.0 **** 0.06
21809 H 96.89180560746307 70.54581853257683 34.50822219608415 H 0.0 **** 0.06
21810 H 96.82682190147214 70.2486895280156 32.75438332687304 H 0.0 **** 0.06
21811 C 13.185344906180696 61.79994519954781 50.867208831511675 C 0.0 **** -0.24
21812 H 13.106698184612611 60.74216175228803 51.12205051352993 H 0.0 **** 0.06
21813 H 12.256030495805277 62.1323520158591 50.403799922150455 H 0.0 **** 0.06
21814 H 14.011454719150962 61.94422383453964 50.17110064368899 H 0.0 **** 0.06
21815 H 13.367542859180816 62.37823679551633 51.77329994830825 H 0.0 **** 0.06
21816 C 51.955797415978395 126.72616445964705 130.54599582984054 C 0.0 **** -0.24
21817 H 52.5764977320556 125.85594344215805 130.33077296708575 H 0.0 **** 0.06
21818 H 51.203505434324086 126.8375989083318 129.76550400603406 H 0.0 **** 0.06
21819 H 52.58107037003592 127.61843324588285 130.58006213893952 H 0.0 **** 0.06
21820 H 51.463139821873256 126.59020744900432 131.50899612106628 H 0.0 **** 0.06
21821 C 36.29162924363192 55.6038361946494 160.43313226690162 C 0.0 **** -0.24
21822 H 36.700500456885266 56.33125107148875 161.13354518875718 H 0.0 **** 0.06
21823 H 36.95784307926613 55.51269968868266 159.57443111945994 H 0.0 **** 0.06
21824 H 35.309095149249515 55.93426739917412 160.0967971286416 H 0.0 **** 0.06
21825 H 36.200509782183076 54.63586530029714 160.92658942935057 H 0.0 **** 0.06
21826 C 14.619384342991907 70.29745983469809 53.806480976808984 C 0.0 **** -0.24
21827 H 14.065631712573008 71.22170004696034 53.97374255566615 H 0.0 **** 0.06
21828 H 14.416032342990775 69.92860220053944 52.80126240984754 H 0.0 **** 0.06
21829 H 14.309068988550791 69.55193152606307 54.53817645296533 H 0.0 **** 0.06
21830 H 15.687330003028933 70.48957750316413 53.914097211858405 H 0.0 **** 0.06
21831 C 81.08036640830653 15.866697984119774 34.28443765963051 C 0.0 **** -0.24
21832 H 80.26764183015882 16.19447871183646 33.63672329137883 H 0.0 **** 0.06
21833 H 80.80549055716222 16.034517680389797 35.32639265437082 H 0.0 **** 0.06
21834 H 81.98281395790428 16.431992193640852 34.050911965011494 H 0.0 **** 0.06
21835 H 81.26584783472794 14.80381177159255 34.12468490946546 H 0.0 **** 0.06
21836 C 62.43892103162867 115.72671080184439 125.81865138489901 C 0.0 **** -0.24
21837 H 61.72423096225482 116.49207331188678 126.12398028597885 H 0.0 **** 0.06
21838 H 63.37772047025592 116.20019033896752 125.53212548140242 H 0.0 **** 0.06
21839 H 62.036581094433686 115.17282744071157 124.97136977759827 H 0.0 **** 0.06
21840 H 62.61444642625507 115.04352935551707 126.64987296768179 H 0.0 **** 0.06
21841 C 76.01346952202714 43.656303311248166 110.63321131419222 C 0.0 **** -0.24
21842 H 76.55896632965286 44.20775867177878 111.39935594473648 H 0.0 **** 0.06
21843 H 76.60278538810546 42.79433106927797 110.31739954296951 H 0.0 **** 0.06
21844 H 75.83305088556617 44.30671496354674 109.77768098336334 H 0.0 **** 0.06
21845 H 75.06139767642371 43.31715909044709 111.0398385753062 H 0.0 **** 0.06
21846 C 113.68125807526451 30.8551148846733 134.65684523257693 C 0.0 **** -0.24
21847 H 113.79127328322062 30.571459786849175 133.61084964590646 H 0.0 **** 0.06
21848 H 112.98143254191433 30.176617457524287 135.14649701826033 H 0.0 **** 0.06
21849 H 113.30112079682061 31.875094143466924 134.71884796901304 H 0.0 **** 0.06
21850 H 114.65036118333654 30.797694358265232 135.1522454816585 H 0.0 **** 0.06
21851 C 3.6691054572540054 67.53831889195317 172.92832969943606 C 0.0 **** -0.24
21852 H 2.615736163044261 67.55311148282453 173.2080879374035 H 0.0 **** 0.06
21853 H 4.1663880035430125 66.70644626844592 173.42791791999468 H 0.0 **** 0.06
21854 H 4.13790681470816 68.47478108585346 173.2284083179273 H 0.0 **** 0.06
21855 H 3.7567508878041735 67.41769847962729 171.84832397202763 H 0.0 **** 0.06
21856 C 152.99385068861028 160.5497107328115 93.50196922943098 C 0.0 **** -0.24
21857 H 153.36184490631678 159.84870605160046 92.75264749544363 H 0.0 **** 0.06
21858 H 152.78500396761143 161.5099124091997 93.0285537764126 H 0.0 **** 0.06
21859 H 153.74890544813684 160.68333823321404 94.27723846448743 H 0.0 **** 0.06
21860 H 152.0805226756146 160.1577175282214 93.94869914108295 H 0.0 **** 0.06
21861 C 49.21647228107557 22.502523067660576 62.62078395712665 C 0.0 **** -0.24
21862 H 48.30935916260307 22.275268653218234 63.17941849490872 H 0.0 **** 0.06
21863 H 49.65995450033736 23.420516290075454 63.00768233157528 H 0.0 **** 0.06
21864 H 48.96982679109699 22.634205841624862 61.567081427250855 H 0.0 **** 0.06
21865 H 49.92554172679479 21.681903315453695 62.72840876227281 H 0.0 **** 0.06
21866 C 151.36252656096113 162.97090722318424 176.4162497228636 C 0.0 **** -0.24
21867 H 151.20796549700606 164.00827030359142 176.71399305862042 H 0.0 **** 0.06
21868 H 150.4155651225842 162.5418684335771 176.0904014653688 H 0.0 **** 0.06
21869 H 151.74571085289762 162.4034542126116 177.2644279151212 H 0.0 **** 0.06
21870 H 152.08113079161825 162.93039726652734 175.5981254975868 H 0.0 **** 0.06
21871 C 98.26126894250535 155.52487050204803 109.78991760667263 C 0.0 **** -0.24
21872 H 97.32670323898526 156.04099424379774 110.00696498094187 H 0.0 **** 0.06
21873 H 98.98260097489651 156.2352920758026 109.38478469546102 H 0.0 **** 0.06
21874 H 98.07905084554613 154.73627412317222 109.0599698860281 H 0.0 **** 0.06
21875 H 98.65695488295319 155.08766694411003 110.70677204139592 H 0.0 **** 0.06
21876 C 34.05571104319341 60.23360293724808 11.790359021461114 C 0.0 **** -0.24
21877 H 34.81844019377907 60.18701755142132 11.012396661298055 H 0.0 **** 0.06
21878 H 34.01587510635446 59.27905867445081 12.316859503181888 H 0.0 **** 0.06
21879 H 33.085921259730185 60.43890226874852 11.33615054020973 H 0.0 **** 0.06
21880 H 34.30288221833629 61.02752451891439 12.494897372149183 H 0.0 **** 0.06
21881 C 173.86528603977825 93.63908490769029 102.12673893019604 C 0.0 **** -0.24
21882 H 174.68088622867896 93.92950558235191 102.78864641324986 H 0.0 **** 0.06
21883 H 173.1889324039779 92.9675370399051 102.65668573206278 H 0.0 **** 0.06
21884 H 174.27122881956865 93.12939734489646 101.25197470330681 H 0.0 **** 0.06
21885 H 173.32110881823928 94.52792567559248 101.80936757960916 H 0.0 **** 0.06
21886 C 49.50378078483506 110.11952413471546 54.067763963221324 C 0.0 **** -0.24
21887 H 49.17151276827654 109.14154619285735 54.41365908273133 H 0.0 **** 0.06
21888 H 50.11481937204121 109.99995596810417 53.17276079207406 H 0.0 **** 0.06
21889 H 50.092962553101145 110.60069286282247 54.84834122315755 H 0.0 **** 0.06
21890 H 48.63577343639574 110.7368697408324 53.83605075173469 H 0.0 **** 0.06
21891 C 48.87139324824497 4.605684080717737 0.8228230393306717 C 0.0 **** -0.24
21892 H 48.35536059786075 4.563181755706523 1.7809160245487021 H 0.0 **** 0.06
21893 H 48.26845537771945 4.1080344666221436 0.06277293047998 H 0.0 **** 0.06
21894 H 49.83643540694193 4.104973016571847 0.9062043733429732 H 0.0 **** 0.06
21895 H 49.02609743667587 5.646935945099187 0.539899844345797 H 0.0 **** 0.06
21896 C 73.29666656311042 66.3685467142052 43.14835536405596 C 0.0 **** -0.24
21897 H 72.4410939483796 66.59421215514311 43.78543776865118 H 0.0 **** 0.06
21898 H 74.05441207039041 65.84489248586863 43.7312441697332 H 0.0 **** 0.06
21899 H 73.7138221747914 67.29721651832477 42.75940171049203 H 0.0 **** 0.06
21900 H 72.97489293537399 65.73942882689482 42.31859408941608 H 0.0 **** 0.06
21901 C 39.003431200880414 30.488101925699524 114.19981605712822 C 0.0 **** -0.24
21902 H 38.968766812229546 29.625044050858094 114.86558544523662 H 0.0 **** 0.06
21903 H 39.99664587622681 30.564405073134566 113.75810825289271 H 0.0 **** 0.06
21904 H 38.787124059767166 31.392479731111294 114.76801351842455 H 0.0 **** 0.06
21905 H 38.26150584534605 30.36792832214597 113.41107756567952 H 0.0 **** 0.06
21906 C 15.110079902455425 36.81919885415056 72.25168093599609 C 0.0 **** -0.24
21907 H 15.113976114965737 35.79003804327567 71.89262215485388 H 0.0 **** 0.06
21908 H 15.805324522328135 36.91493796339637 73.08594726956812 H 0.0 **** 0.06
21909 H 14.10590800629356 37.08458668153219 72.58317977705889 H 0.0 **** 0.06
21910 H 15.414215072880609 37.48636309424455 71.44563874199747 H 0.0 **** 0.06
21911 C 19.350725708031973 148.12432209821426 2.247904575813891 C 0.0 **** -0.24
21912 H 19.565534429567037 149.1772133135864 2.428649278094099 H 0.0 **** 0.06
21913 H 19.286024127853153 147.94635213137576 1.173951696198884 H 0.0 **** 0.06
21914 H 18.40360726352492 147.86054566980147 2.7184765786025764 H 0.0 **** 0.06
21915 H 20.14889904699328 147.51398211286798 2.6705850582656296 H 0.0 **** 0.06
21916 C 99.09524291559596 15.841628869773444 34.75721101860535 C 0.0 **** -0.24
21917 H 98.55176825149387 16.405746889288366 33.99947986307063 H 0.0 **** 0.06
21918 H 99.02181074604358 14.776087891539362 34.5382737712888 H 0.0 **** 0.06
21919 H 98.66300092032135 16.042211581492722 35.73752923031691 H 0.0 **** 0.06
21920 H 100.14242455724919 16.142117136582897 34.75364110359169 H 0.0 **** 0.06
21921 C 75.05805919389739 133.2709629114279 155.20564775558378 C 0.0 **** -0.24
21922 H 74.60949392281138 134.25905759340895 155.30715368592678 H 0.0 **** 0.06
21923 H 75.78075879573285 133.11718645327295 156.00709735077592 H 0.0 **** 0.06
21924 H 75.56198894550465 133.19761835406666 154.2421469856788 H 0.0 **** 0.06
21925 H 74.27913606093276 132.51069341645757 155.2675220028521 H 0.0 **** 0.06
21926 C 94.78750239488282 45.850100787423344 43.287896116440336 C 0.0 **** -0.24
21927 H 94.95988526718007 46.603079334753716 42.51820082539125 H 0.0 **** 0.06
21928 H 94.29683848789138 46.312061813426 44.14467864856141 H 0.0 **** 0.06
21929 H 95.7417629606124 45.42595486934101 43.599539124594074 H 0.0 **** 0.06
21930 H 94.15212978342261 45.060175985842534 42.886359274197304 H 0.0 **** 0.06
21931 C 121.30235599159158 184.48612746236986 136.10978358144763 C 0.0 **** -0.24
21932 H 121.27932775437267 183.54789250670382 135.55415576811123 H 0.0 **** 0.06
21933 H 120.78242759963786 184.35782234772373 137.05953652075448 H 0.0 **** 0.06
21934 H 120.80962340643975 185.26487082742145 135.52740506081847 H 0.0 **** 0.06
21935 H 122.33699760107118 184.77223825849364 136.29700723922417 H 0.0 **** 0.06
21936 C 154.7172386712382 97.66153252808529 91.8264799683556 C 0.0 **** -0.24
21937 H 154.73814111637316 98.61745205232414 92.34972399531547 H 0.0 **** 0.06
21938 H 154.04988613996125 96.97610586194675 92.34996662041486 H 0.0 **** 0.06
21939 H 155.72143794927797 97.24011446581507 91.7985880787431 H 0.0 **** 0.06
21940 H 154.35754786963264 97.81250133072699 90.80874949952111 H 0.0 **** 0.06
21941 C 32.7682239928115 50.380194215867974 130.33111708460967 C 0.0 **** -0.24
21942 H 33.60270456296428 50.216519429078915 131.01335466611732 H 0.0 **** 0.06
21943 H 33.12727348552647 50.34295562026314 129.30206113831542 H 0.0 **** 0.06
21944 H 32.32629730375601 51.357155258400425 130.5271050628424 H 0.0 **** 0.06
21945 H 32.01680480862649 49.60507060986187 130.48228246796435 H 0.0 **** 0.06
21946 C 10.653911690521738 132.41232880204853 126.44290610153791 C 0.0 **** -0.24
21947 H 10.136039758636905 132.34197699521138 127.39873538297672 H 0.0 **** 0.06
21948 H 11.33736653553948 131.5692498686734 126.33599595092846 H 0.0 **** 0.06
21949 H 11.217505349867338 133.34414091600695 126.40247441947679 H 0.0 **** 0.06
21950 H 9.924773084725011 132.3930342312072 125.63237788007973 H 0.0 **** 0.06
21951 C 68.6599336381365 130.2535462921427 175.2182287735526 C 0.0 **** -0.24
21952 H 69.40029321162447 130.9423389571552 175.62544460940217 H 0.0 **** 0.06
21953 H 69.16575562401555 129.392843642378 174.78231433754172 H 0.0 **** 0.06
21954 H 68.07575604790657 130.76097587867002 174.45052758084057 H 0.0 **** 0.06
21955 H 67.99640444851832 129.92002335997836 176.01654879039694 H 0.0 **** 0.06
21956 C 12.955010874997697 154.93938223990773 153.2850089753794 C 0.0 **** -0.24
21957 H 14.038501204858903 155.02931226114595 153.36994829521592 H 0.0 **** 0.06
21958 H 12.483268477340346 155.82350056550462 153.7147720259062 H 0.0 **** 0.06
21959 H 12.621248067188645 154.0515436405603 153.82243188348352 H 0.0 **** 0.06
21960 H 12.679513219263924 154.85363379264413 152.2341485682432 H 0.0 **** 0.06
21961 C 89.42689784762331 20.442715641330608 134.35775605568256 C 0.0 **** -0.24
21962 H 89.67500196142134 19.570643201058175 134.96348569208396 H 0.0 **** 0.06
21963 H 89.65111263573908 20.23302014214542 133.31187848651365 H 0.0 **** 0.06
21964 H 90.0152580767778 21.296615620285024 134.6929357372672 H 0.0 **** 0.06
21965 H 88.36570788325781 20.668218572234707 134.46310618724942 H 0.0 **** 0.06
21966 C 99.99468293682925 139.10704092104186 63.2800880290045 C 0.0 **** -0.24
21967 H 100.65204683302996 139.29023472540797 62.430238573502436 H 0.0 **** 0.06
21968 H 98.95712271247167 139.12316610251906 62.94505945463766 H 0.0 **** 0.06
21969 H 100.14656859501834 139.8827391732642 64.0311987747508 H 0.0 **** 0.06
21970 H 100.22256828407815 138.13294283359085 63.71186172683437 H 0.0 **** 0.06
21971 C 147.24661233032708 24.27606268325276 71.48025661016086 C 0.0 **** -0.24
21972 H 147.08823897105452 24.86676172250128 70.578221756757 H 0.0 **** 0.06
21973 H 146.84139158512886 24.81009562664137 72.34028181293108 H 0.0 **** 0.06
21974 H 148.3148920944185 24.11275381365685 71.62340663258188 H 0.0 **** 0.06
21975 H 146.74329175453965 23.314814166063016 71.37766497641333 H 0.0 **** 0.06
21976 C 114.27490755337148 42.144235883957236 61.10858962880965 C 0.0 **** -0.24
21977 H 114.32352171274083 42.070650256891426 62.19449485220683 H 0.0 **** 0.06
21978 H 113.91247904620003 41.20173467501493 60.697351950217666 H 0.0 **** 0.06
21979 H 115.26805185244892 42.356036945706464 60.71414439552875 H 0.0 **** 0.06
21980 H 113.59450421946873 42.94846238463751 60.82928622196374 H 0.0 **** 0.06
21981 C 92.87544887022104 33.957402916331375 111.18642684648273 C 0.0 **** -0.24
21982 H 92.43207805785734 33.08680036092704 111.67050111256549 H 0.0 **** 0.06
21983 H 92.14207908032266 34.76271252646973 111.14500770208332 H 0.0 **** 0.06
21984 H 93.1821018801267 33.69176898159009 110.17424260807962 H 0.0 **** 0.06
21985 H 93.74499684492592 34.285495441066416 111.75432026309318 H 0.0 **** 0.06
21986 C 158.70218448772133 104.13745236554843 103.47810682151612 C 0.0 **** -0.24
21987 H 158.50197582764716 104.96402107869835 102.79646174225974 H 0.0 **** 0.06
21988 H 158.01771580364684 104.19096104029109 104.32446359915122 H 0.0 **** 0.06
21989 H 159.72955254944927 104.20391196347663 103.83575657158087 H 0.0 **** 0.06
21990 H 158.56014293496423 103.19248756508728 102.95398271413842 H 0.0 **** 0.06
21991 C 53.107962999007 179.63142378325642 142.18108396455762 C 0.0 **** -0.24
21992 H 53.349143493145675 179.09718840311513 143.09927939876184 H 0.0 **** 0.06
21993 H 53.5303757444821 180.63611027390803 142.22471802754342 H 0.0 **** 0.06
21994 H 52.02551048943461 179.69685603649404 142.07256880647424 H 0.0 **** 0.06
21995 H 53.52710328068295 179.09722869709924 141.32880444430003 H 0.0 **** 0.06
21996 C 159.51559840051723 0.05539321940045738 181.95397254007338 C 0.0 **** -0.24
21997 H 160.56691073995378 -0.09456866254453189 182.20365275790527 H 0.0 **** 0.06
21998 H 158.92486695408462 0.07515343289497878 182.86983511533907 H 0.0 **** 0.06
21999 H 159.17397129832588 -0.760182358430086 181.31744937731418 H 0.0 **** 0.06
22000 H 159.3995004847133 1.0019050063524446 181.42550486115798 H 0.0 **** 0.06
22001 C 23.026901340053612 118.86796157301332 91.95232625079124 C 0.0 **** -0.24
22002 H 23.19377124139939 119.4894773861251 91.0721109855419 H 0.0 **** 0.06
22003 H 21.95671187528258 118.77494122039867 92.13327942739134 H 0.0 **** 0.06
22004 H 23.503392719885824 119.33009404274459 92.81757762320451 H 0.0 **** 0.06
22005 H 23.45594401129864 117.87989968158037 91.78562157488243 H 0.0 **** 0.06
22006 C 37.417423371104505 77.0568209232914 33.19483782516677 C 0.0 **** -0.24
22007 H 37.23722219988073 78.0303419804824 33.650062644445 H 0.0 **** 0.06
22008 H 38.485208144875685 76.83783892191727 33.216949714783595 H 0.0 **** 0.06
22009 H 37.06931655810652 77.06882110193885 32.162368946114825 H 0.0 **** 0.06
22010 H 36.877300076479486 76.29050122688919 33.75120849589149 H 0.0 **** 0.06
22011 C 25.336674967315602 50.88717309921236 44.621529413758594 C 0.0 **** -0.24
22012 H 26.422621316714768 50.80442891368085 44.675615573466644 H 0.0 **** 0.06
22013 H 25.06811930332094 51.77305598492973 44.04492923781709 H 0.0 **** 0.06
22014 H 24.928373960271188 50.97141695887467 45.62925291398841 H 0.0 **** 0.06
22015 H 24.927899302621398 49.99998209342607 44.13768548894757 H 0.0 **** 0.06
22016 C 178.89764938735902 89.61795972216008 168.75813692375044 C 0.0 **** -0.24
22017 H 179.19171790162517 90.38585706508728 169.47306819477186 H 0.0 **** 0.06
22018 H 178.55308825589236 88.73398021118398 169.29557923315156 H 0.0 **** 0.06
22019 H 179.75216664706255 89.35362074888785 168.13535644954135 H 0.0 **** 0.06
22020 H 178.09293250710778 89.99714802551073 168.12857491206339 H 0.0 **** 0.06
22021 C 1.087152326367459 170.64996931632453 105.60456591975192 C 0.0 **** -0.24
22022 H 1.5496026196356638 169.83923421722508 105.04172963407758 H 0.0 **** 0.06
22023 H 0.6055464570739844 170.24570789244075 106.49516227147562 H 0.0 **** 0.06
22024 H 0.3425662129691318 171.14560362923982 104.98124535785281 H 0.0 **** 0.06
22025 H 1.8516092560618347 171.3697066852965 105.89896549502636 H 0.0 **** 0.06
22026 C 128.06350823378745 71.1398681961436 137.05533758854494 C 0.0 **** -0.24
22027 H 127.27772095541091 71.13393833464565 136.29958460847791 H 0.0 **** 0.06
22028 H 128.68499059723217 72.02556100595551 136.92624357864673 H 0.0 **** 0.06
22029 H 128.6774825449748 70.24549802849891 136.9471898981899 H 0.0 **** 0.06
22030 H 127.61275756096582 71.15344439453968 138.04745596357327 H 0.0 **** 0.06
22031 C 18.903352793695696 174.65699986293345 175.48807754522565 C 0.0 **** -0.24
22032 H 18.1185663465519 173.94459096672895 175.23458366035882 H 0.0 **** 0.06
22033 H 18.656388184702834 175.6326729342474 175.06929847690355 H 0.0 **** 0.06
22034 H 19.852950803670048 174.3138248527353 175.07684901057328 H 0.0 **** 0.06
22035 H 18.985090207787778 174.7369755534957 176.57248626427497 H 0.0 **** 0.06
22036 C 161.5212112816297 12.639487034273088 144.75644705211636 C 0.0 **** -0.24
22037 H 161.59921091839345 12.266326891699464 145.77729175721305 H 0.0 **** 0.06
22038 H 161.5900941312735 11.804942147859492 144.058907561739 H 0.0 **** 0.06
22039 H 162.33162133804112 13.342453468401345 144.563986425363 H 0.0 **** 0.06
22040 H 160.56367107450666 13.143245535784331 144.62659146812015 H 0.0 **** 0.06
22041 C 61.968932118136394 183.09927501915334 37.303534341861905 C 0.0 **** -0.24
22042 H 62.70034187193073 182.5223556514607 36.73817236767411 H 0.0 **** 0.06
22043 H 62.09001696389436 184.15907885637003 37.07814431674126 H 0.0 **** 0.06
22044 H 62.122648685938515 182.93451852970793 38.37026293600309 H 0.0 **** 0.06
22045 H 60.96401453261393 182.781081365189 37.02698995973185 H 0.0 **** 0.06
22046 C 140.5546522192235 6.581358279060453 87.45799636917104 C 0.0 **** -0.24
22047 H 141.53263513106674 6.101166878941569 87.43099640165116 H 0.0 **** 0.06
22048 H 140.20994533037157 6.644405867478042 88.49082770152569 H 0.0 **** 0.06
22049 H 139.84536081803475 5.9950936302046784 86.87296486860174 H 0.0 **** 0.06
22050 H 140.63045534484252 7.584336670123832 87.03886085559537 H 0.0 **** 0.06
22051 C 112.25922124941214 135.3147021936826 137.8970079632765 C 0.0 **** -0.24
22052 H 112.30409414402455 136.19033283277116 138.54412986507884 H 0.0 **** 0.06
22053 H 111.62473205994378 135.5302312802791 137.0369160720008 H 0.0 **** 0.06
22054 H 111.84539621792082 134.4729768518979 138.4530148653579 H 0.0 **** 0.06
22055 H 113.26373248555753 135.06450693762298 137.5544968034729 H 0.0 **** 0.06
22056 C 108.87960621418983 69.6085113874209 110.59812846333523 C 0.0 **** -0.24
22057 H 108.13564771357409 69.77159911898252 111.37849602270182 H 0.0 **** 0.06
22058 H 109.87902900525097 69.70673335444194 111.02296480218479 H 0.0 **** 0.06
22059 H 108.74553901088638 70.34794749845207 109.80888605786856 H 0.0 **** 0.06
22060 H 108.75817545284713 68.60826990461143 110.18348779228194 H 0.0 **** 0.06
22061 C 13.551800363403231 108.10354133390318 112.27313041340068 C 0.0 **** -0.24
22062 H 13.39677482896451 107.07304162809992 111.95444594734352 H 0.0 **** 0.06
22063 H 12.721669526094303 108.719801574828 111.92820075984855 H 0.0 **** 0.06
22064 H 14.483313450791343 108.47828604736442 111.84772571652701 H 0.0 **** 0.06
22065 H 13.606783372118116 108.14322780993807 113.36036920069881 H 0.0 **** 0.06
22066 C 83.77825469014184 149.7821072464062 155.8225184109373 C 0.0 **** -0.24
22067 H 83.27473748145218 149.3417767324991 154.96196346256588 H 0.0 **** 0.06
22068 H 83.56277774682141 150.84987867140165 155.8621193563948 H 0.0 **** 0.06
22069 H 84.85318492195506 149.63095932758495 155.73136672310702 H 0.0 **** 0.06
22070 H 83.420997970323 149.30414039958413 156.7352980782779 H 0.0 **** 0.06
22071 C 67.83851868191567 117.54914291788204 37.83317572580387 C 0.0 **** -0.24
22072 H 67.10945324041481 118.34540448286158 37.68426482458253 H 0.0 **** 0.06
22073 H 68.35198816571727 117.34563430861373 36.89398901669705 H 0.0 **** 0.06
22074 H 67.3272788265433 116.64772210942199 38.17152126962442 H 0.0 **** 0.06
22075 H 68.56470668146702 117.85812835793608 38.58504429875386 H 0.0 **** 0.06
22076 C 56.33543192656998 155.29874311458173 140.98710421468945 C 0.0 **** -0.24
22077 H 57.12439093578581 154.86828817005272 141.60467251969078 H 0.0 **** 0.06
22078 H 56.54541229887516 156.35462788111462 140.81543600278127 H 0.0 **** 0.06
22079 H 55.37799542021486 155.19542986262917 141.49793302798372 H 0.0 **** 0.06
22080 H 56.29604200302123 154.775384220011 140.03210513132393 H 0.0 **** 0.06
22081 C 184.0748986744632 71.63990274536695 21.51105545478515 C 0.0 **** -0.24
22082 H 184.53344586616595 72.10435638778745 20.638295098131778 H 0.0 **** 0.06
22083 H 184.2667818576196 70.56631611759974 21.493307216285245 H 0.0 **** 0.06
22084 H 182.9996054623625 71.81700005701657 21.493408664828337 H 0.0 **** 0.06
22085 H 184.49951710653562 72.07106726148777 22.417427178085717 H 0.0 **** 0.06
22086 C 82.19922366648939 166.6723816632733 32.13177722803482 C 0.0 **** -0.24
22087 H 82.58063260079545 165.85480586091603 32.74267277606123 H 0.0 **** 0.06
22088 H 82.09170814756516 167.56655990249902 32.74717880074786 H 0.0 **** 0.06
22089 H 81.22938949088116 166.39556787554264 31.7186499396131 H 0.0 **** 0.06
22090 H 82.89635106474115 166.8736820020179 31.317970159705737 H 0.0 **** 0.06
22091 C 12.509739108259282 171.83650857137414 64.01810793127987 C 0.0 **** -0.24
22092 H 13.571075649917333 171.74784440152808 63.78624208112126 H 0.0 **** 0.06
22093 H 12.39075923655156 172.2430239291544 65.02285587862139 H 0.0 **** 0.06
22094 H 12.042561176098701 170.85302644010474 63.9653723206103 H 0.0 **** 0.06
22095 H 12.035331879825492 172.50306352208582 63.297219128720656 H 0.0 **** 0.06
22096 C 131.5515408018731 127.09388235450173 122.0349480869606 C 0.0 **** -0.24
22097 H 131.44780588299216 127.94151769153451 121.35839820914514 H 0.0 **** 0.06
22098 H 132.3411879879509 127.29932206836635 122.75779469067292 H 0.0 **** 0.06
22099 H 131.80661432626493 126.20188749060138 121.46244391016101 H 0.0 **** 0.06
22100 H 130.6103702408014 126.93171757377887 122.56026696253294 H 0.0 **** 0.06
22101 C 76.1620913574099 158.57279426505337 126.26425638508738 C 0.0 **** -0.24
22102 H 75.59931007599681 158.37025336432862 125.35282411401386 H 0.0 **** 0.06
22103 H 76.84251740937995 157.74409258721607 126.4623278402147 H 0.0 **** 0.06
22104 H 75.47185810779278 158.68415668780096 127.1001623737049 H 0.0 **** 0.06
22105 H 76.7347523584987 159.4919221259981 126.1405158704506 H 0.0 **** 0.06
22106 C 97.90578488454274 80.00718590204531 178.03649656617353 C 0.0 **** -0.24
22107 H 96.82695662024024 80.04715246139774 177.88653787228577 H 0.0 **** 0.06
22108 H 98.39816634521337 79.81505417858531 177.0825865647492 H 0.0 **** 0.06
22109 H 98.14544327760653 79.20774519500064 178.7376005338116 H 0.0 **** 0.06
22110 H 98.25147115058887 80.95965253374781 178.4390505376894 H 0.0 **** 0.06
22111 C 122.35423262006698 107.98812597043506 48.83156212230226 C 0.0 **** -0.24
22112 H 122.80456290593618 107.83762807642618 49.81280031205716 H 0.0 **** 0.06
22113 H 121.58918147170506 107.22982437282998 48.66445199589678 H 0.0 **** 0.06
22114 H 123.12277852509935 107.90586139168143 48.062813072443305 H 0.0 **** 0.06
22115 H 121.90119905108843 108.97763321170332 48.78790066552038 H 0.0 **** 0.06
22116 C 111.3963962662372 108.36232429510522 75.95978538109124 C 0.0 **** -0.24
22117 H 111.10971588431518 108.71272738249525 76.95094196803166 H 0.0 **** 0.06
22118 H 111.08786668889591 107.32302401639078 75.839195838971 H 0.0 **** 0.06
22119 H 112.47749113171575 108.4373280807277 75.84659675538495 H 0.0 **** 0.06
22120 H 110.90855313480525 108.97647389265904 75.2020910211672 H 0.0 **** 0.06
22121 C 99.2157740968682 145.6486612191507 89.86280190325009 C 0.0 **** -0.24
22122 H 99.82108165664026 146.43378036894313 89.40852217823557 H 0.0 **** 0.06
22123 H 99.44539312116102 144.69429069240945 89.38897560223175 H 0.0 **** 0.06
22124 H 98.15975353325258 145.87837229541415 89.72353333138712 H 0.0 **** 0.06
22125 H 99.43819045507881 145.5886255917076 90.92815867409236 H 0.0 **** 0.06
22126 C 94.40736594944245 114.29525703233332 20.498282269894048 C 0.0 **** -0.24
22127 H 93.81004697486092 113.99507579214844 21.35907528971279 H 0.0 **** 0.06
22128 H 95.27840495551293 114.85604646520642 20.839353611743434 H 0.0 **** 0.06
22129 H 93.80659502297839 114.92196143517162 19.84014989949037 H 0.0 **** 0.06
22130 H 94.73537374097445 113.40880523116493 19.956634392431795 H 0.0 **** 0.06
22131 C 40.2792095299875 4.911755596174295 108.24934895468071 C 0.0 **** -0.24
22132 H 39.59681261580704 5.046359591343325 109.08827896755646 H 0.0 **** 0.06
22133 H 40.77562463652987 5.85745860613001 108.03000164608902 H 0.0 **** 0.06
22134 H 39.71693325413162 4.585513596966564 107.37374805270746 H 0.0 **** 0.06
22135 H 41.02441420787022 4.15931269081058 108.50393682024772 H 0.0 **** 0.06
22136 C 101.4301558004152 27.280646087591833 115.73043698298216 C 0.0 **** -0.24
22137 H 102.3305254005237 26.94935304324406 116.24818969880056 H 0.0 **** 0.06
22138 H 100.65718838123468 27.51664636361076 116.46254874223229 H 0.0 **** 0.06
22139 H 101.07746851362703 26.48838675696956 115.07106063913932 H 0.0 **** 0.06
22140 H 101.65674268831651 28.169689668116945 115.14220297435031 H 0.0 **** 0.06
22141 C 154.01230051663876 36.91071276609361 124.63242954291191 C 0.0 **** -0.24
22142 H 154.7129547748473 36.56350893072408 123.87293466125864 H 0.0 **** 0.06
22143 H 154.35468132973057 36.58956905055476 125.61609079161254 H 0.0 **** 0.06
22144 H 153.02498810574542 36.4915879279385 124.43585141319157 H 0.0 **** 0.06
22145 H 153.95614457966332 37.99903145636273 124.60453135333113 H 0.0 **** 0.06
22146 C 155.46774312998286 169.76638635405183 137.5571852757306 C 0.0 **** -0.24
22147 H 155.730608761404 170.51013470920287 136.80451042960493 H 0.0 **** 0.06
22148 H 156.1426735890035 169.8571364655637 138.4081809587205 H 0.0 **** 0.06
22149 H 155.55444181389004 168.76887658047707 137.12793835290023 H 0.0 **** 0.06
22150 H 154.44138088871674 169.93117284089277 137.88657463596695 H 0.0 **** 0.06
22151 C 106.8867316392669 37.9115643028656 91.91010544482153 C 0.0 **** -0.24
22152 H 105.85706160201862 37.56241359664972 91.83570281652725 H 0.0 **** 0.06
22153 H 107.50269154447112 37.38075515275665 91.18383661191912 H 0.0 **** 0.06
22154 H 107.26268217351124 37.71925924906162 92.91528768718551 H 0.0 **** 0.06
22155 H 106.92408725850758 38.9808017508214 91.70641412766456 H 0.0 **** 0.06
22156 C 164.11385415604443 82.47330071193005 130.62102104627434 C 0.0 **** -0.24
22157 H 165.11511417063588 82.15422247626037 130.9139986512085 H 0.0 **** 0.06
22158 H 164.14103186536 82.86366421573109 129.6034714991764 H 0.0 **** 0.06
22159 H 163.76904105676218 83.25295642209733 131.30015819039886 H 0.0 **** 0.06
22160 H 163.43446670036363 81.62345523220688 130.66781481496315 H 0.0 **** 0.06
22161 C 72.83805209602079 97.9472548963227 106.11401684891325 C 0.0 **** -0.24
22162 H 72.58220341524003 97.51421884987116 107.08154546485429 H 0.0 **** 0.06
22163 H 72.48913580541928 97.28950186621444 105.31832738564128 H 0.0 **** 0.06
22164 H 73.91987264930157 98.06221227027584 106.04301355312123 H 0.0 **** 0.06
22165 H 72.36183144753593 98.92262523147917 106.01543713355659 H 0.0 **** 0.06
22166 C 39.90364188040803 47.74113439281351 20.465502629127286 C 0.0 **** -0.24
22167 H 39.291229653273035 46.84146800201415 20.406350209728203 H 0.0 **** 0.06
22168 H 39.401926013826625 48.4810683862263 21.088570218826135 H 0.0 **** 0.06
22169 H 40.0496933163073 48.14709362202666 19.463941111239535 H 0.0 **** 0.06
22170 H 40.87141923765884 47.49296875752887 20.902075857944283 H 0.0 **** 0.06
22171 C 59.24661421079635 99.64912791047719 144.59549199193367 C 0.0 **** -0.24
22172 H 59.13719203697907 98.96800017635691 145.439169152321 H 0.0 **** 0.06
22173 H 59.83099308882083 100.51696559567121 144.90315653630807 H 0.0 **** 0.06
22174 H 58.26151918183123 99.97319875068818 144.26061108065764 H 0.0 **** 0.06
22175 H 59.758697533422605 99.13763248889326 143.77987168069248 H 0.0 **** 0.06
22176 C 45.33203891353611 111.6617181969181 181.63792988178662 C 0.0 **** -0.24
22177 H 45.5979677948111 112.49543790829928 182.28723075102116 H 0.0 **** 0.06
22178 H 45.088615551556416 112.03938514370252 180.644594027324 H 0.0 **** 0.06
22179 H 44.46971165165138 111.14032597725536 182.05109106331113 H 0.0 **** 0.06
22180 H 46.17432164855023 110.9731101050369 181.56895118820245 H 0.0 **** 0.06
22181 C 88.30524934923596 138.9179222671337 149.2642815848095 C 0.0 **** -0.24
22182 H 88.2398270882062 138.11820623263634 150.00271545461266 H 0.0 **** 0.06
22183 H 89.28640337662011 139.38993674054285 149.32674361976768 H 0.0 **** 0.06
22184 H 87.53182761357925 139.65942552630008 149.46302283357124 H 0.0 **** 0.06
22185 H 88.1639142079818 138.50334016776355 148.266499340441 H 0.0 **** 0.06
22186 C 127.77989533236132 59.42715853991706 168.21598360780922 C 0.0 **** -0.24
22187 H 127.03426399660606 58.712731896879006 168.5655631521579 H 0.0 **** 0.06
22188 H 128.76590211179706 59.12564305155932 168.56970299910478 H 0.0 **** 0.06
22189 H 127.54241832718571 60.41837108903644 168.60235223954538 H 0.0 **** 0.06
22190 H 127.77570945953744 59.45172741793988 167.1257532469969 H 0.0 **** 0.06
22191 C 97.17363245959136 57.46156054610651 146.36918118151974 C 0.0 **** -0.24
22192 H 97.26415720129917 56.51827119058714 146.9082719332843 H 0.0 **** 0.06
22193 H 97.88715005250744 58.18027157653327 146.77451870540588 H 0.0 **** 0.06
22194 H 96.16194526973372 57.84923247873692 146.4816348378867 H 0.0 **** 0.06
22195 H 97.38416151583992 57.297233784018346 145.31189804941363 H 0.0 **** 0.06
22196 C 14.533504060290312 122.30197989521402 174.33418520616402 C 0.0 **** -0.24
22197 H 13.563363880622802 122.6475925670375 174.69082125153557 H 0.0 **** 0.06
22198 H 14.459011708773971 121.25599369836577 174.03739046323295 H 0.0 **** 0.06
22199 H 15.269440944824396 122.40291093718416 175.13098389766952 H 0.0 **** 0.06
22200 H 14.83994216004075 122.9023527166306 173.47735001790596 H 0.0 **** 0.06
22201 C 25.58840556027721 7.841411105075629 163.16007368228742 C 0.0 **** -0.24
22202 H 26.475433918062635 8.43277191956431 163.3850435002111 H 0.0 **** 0.06
22203 H 24.82728468982134 8.482983848228393 162.71681441091755 H 0.0 **** 0.06
22204 H 25.202232863651318 7.402251872196274 164.08091689655532 H 0.0 **** 0.06
22205 H 25.849092303721278 7.047514186203635 162.46031410781728 H 0.0 **** 0.06
22206 C 58.36769997410045 161.78423621811402 138.3065691532767 C 0.0 **** -0.24
22207 H 57.65821396687221 162.2083510991951 139.01826471828485 H 0.0 **** 0.06
22208 H 57.866480437380574 161.02795197264322 137.70143734064715 H 0.0 **** 0.06
22209 H 59.1949835649483 161.32671155993194 138.84818468600469 H 0.0 **** 0.06
22210 H 58.748447701029704 162.57412017595271 137.65973621931914 H 0.0 **** 0.06
22211 C 163.26980868627265 153.6834716178226 166.22909219896323 C 0.0 **** -0.24
22212 H 162.2453745115767 153.62124961079033 166.59657881603997 H 0.0 **** 0.06
22213 H 163.26425596870828 153.69490366348322 165.13865289918726 H 0.0 **** 0.06
22214 H 163.83528255203703 152.82091283022797 166.5816868785014 H 0.0 **** 0.06
22215 H 163.73350687673513 154.59794429325407 166.59972016687996 H 0.0 **** 0.06
22216 C 142.45844110322673 114.3588675055887 46.72093023657578 C 0.0 **** -0.24
22217 H 141.5182511936577 114.41157717309159 47.26836146189723 H 0.0 **** 0.06
22218 H 142.64349287528614 115.3116942148472 46.22466672353397 H 0.0 **** 0.06
22219 H 142.4016118957312 113.56607344493312 45.97514315031174 H 0.0 **** 0.06
22220 H 143.2719009014624 114.14698957558744 47.41538994164529 H 0.0 **** 0.06
22221 C 88.24489207818986 182.8236779785177 141.49655413589142 C 0.0 **** -0.24
22222 H 88.97461458472394 183.51140040195327 141.07048223162326 H 0.0 **** 0.06
22223 H 87.79712892558466 182.22866305977334 140.69952163297035 H 0.0 **** 0.06
22224 H 87.46669571662942 183.3894399843784 142.00878371102988 H 0.0 **** 0.06
22225 H 88.7407875755245 182.16251065183272 142.20820701456722 H 0.0 **** 0.06
22226 C 140.56590784286203 39.1434981703506 90.94956350675174 C 0.0 **** -0.24
22227 H 140.7908551675298 38.392838001682975 91.70665224335481 H 0.0 **** 0.06
22228 H 139.499112246104 39.122215029721545 90.72356443054603 H 0.0 **** 0.06
22229 H 141.13316542416368 38.928921243540444 90.04402337215267 H 0.0 **** 0.06
22230 H 140.83833870661744 40.130483759520175 91.32366942719962 H 0.0 **** 0.06
22231 C 101.12037529635636 100.86589114824669 55.66130088180756 C 0.0 **** -0.24
22232 H 101.59366669889839 100.23497059047848 56.41424037676667 H 0.0 **** 0.06
22233 H 101.75012967620462 100.90523118475379 54.77214219989955 H 0.0 **** 0.06
22234 H 100.99106206326444 101.87199389162534 56.060447127176275 H 0.0 **** 0.06
22235 H 100.14639209583235 100.45115065826273 55.40034603837648 H 0.0 **** 0.06
22236 C 77.27034313475593 49.309124174026294 75.86325767662686 C 0.0 **** -0.24
22237 H 76.26392804355301 48.89433808727375 75.80636715917926 H 0.0 **** 0.06
22238 H 77.31199075773608 50.05081009335231 76.66235334815359 H 0.0 **** 0.06
22239 H 77.5228483956979 49.78177287224173 74.9147442960473 H 0.0 **** 0.06
22240 H 77.98037605585243 48.509463998196935 76.07256892901862 H 0.0 **** 0.06
22241 C 142.9754019369559 165.28430548705768 166.84158815132014 C 0.0 **** -0.24
22242 H 142.52421100921623 166.27688739376893 166.82900684046268 H 0.0 **** 0.06
22243 H 144.06065437510367 165.380394785043 166.88388912842703 H 0.0 **** 0.06
22244 H 142.69242296320152 164.74544291293725 165.93715827660185 H 0.0 **** 0.06
22245 H 142.62362151541032 164.73739085059503 167.71592690698867 H 0.0 **** 0.06
22246 C 59.216103375962234 0.2425116776344538 46.27771157611855 C 0.0 **** -0.24
22247 H 60.18972669460223 0.501484646325494 45.86074513010793 H 0.0 **** 0.06
22248 H 58.73197933696048 1.1451669473862722 46.654297307638814 H 0.0 **** 0.06
22249 H 59.34819763923599 -0.4664027191009481 47.094230903867356 H 0.0 **** 0.06
22250 H 58.5964299620407 -0.20593472432939564 45.50189328523783 H 0.0 **** 0.06
22251 C 183.5422916601323 117.12296496899626 19.125412538011346 C 0.0 **** -0.24
22252 H 182.54772679339288 117.1877027123412 18.684075802279324 H 0.0 **** 0.06
22253 H 184.20126574085347 117.84666705045095 18.64557524813813 H 0.0 **** 0.06
22254 H 183.9386199726315 116.11818178536157 18.9812599466766 H 0.0 **** 0.06
22255 H 183.47996114277774 117.3393786847995 20.19230681357118 H 0.0 **** 0.06
22256 C 75.66630604391923 32.25872262624958 22.072838571710662 C 0.0 **** -0.24
22257 H 75.31858384874303 31.26474786284129 22.353950299358544 H 0.0 **** 0.06
22258 H 75.60657884126418 32.37180389153971 20.98955989331762 H 0.0 **** 0.06
22259 H 76.69997837991056 32.38687105640052 22.395579750695475 H 0.0 **** 0.06
22260 H 75.04008310575917 33.01146769421683 22.55226434347098 H 0.0 **** 0.06
22261 C 123.0041288946962 26.2872496032451 103.16382053048466 C 0.0 **** -0.24
22262 H 123.50777506731633 27.2217180703243 102.91405942670553 H 0.0 **** 0.06
22263 H 123.49923009610806 25.460631199350644 102.6520625479128 H 0.0 **** 0.06
22264 H 121.96312822905334 26.339622354083446 102.84744411984957 H 0.0 **** 0.06
22265 H 123.04968469238229 26.127761954068603 104.24097219761762 H 0.0 **** 0.06
22266 C 150.70476964541086 155.00303016412653 13.495918450749969 C 0.0 **** -0.24
22267 H 151.13415874919252 155.87395029608226 13.990345862592392 H 0.0 **** 0.06
22268 H 151.0673622182628 154.9531466980715 12.468498543887108 H 0.0 **** 0.06
22269 H 149.61751547311857 155.08649161304558 13.493481423944587 H 0.0 **** 0.06
22270 H 150.99875893632247 154.0996654825883 14.02959615555821 H 0.0 **** 0.06
22271 C 81.03879909364588 183.20507616215102 58.263275625349536 C 0.0 **** -0.24
22272 H 80.31548913709906 182.6294098116244 57.68592363741823 H 0.0 **** 0.06
22273 H 80.66759277681311 183.33911189912294 59.27969221000936 H 0.0 **** 0.06
22274 H 81.18304326462196 184.1789755211039 57.79769215229203 H 0.0 **** 0.06
22275 H 81.98877557255761 182.67091895352158 58.29095486237736 H 0.0 **** 0.06
22276 C 112.08262981491184 81.06741169447504 21.43986070024806 C 0.0 **** -0.24
22277 H 112.41335396903223 80.03920373561758 21.580385597797715 H 0.0 **** 0.06
22278 H 112.55006382285491 81.70482106014303 22.19164135835416 H 0.0 **** 0.06
22279 H 110.99905033143419 81.11821741042334 21.544247641863308 H 0.0 **** 0.06
22280 H 112.36838399181455 81.4085128020901 20.44532717980684 H 0.0 **** 0.06
22281 C 23.456765189442706 128.0839840116451 66.00036325658067 C 0.0 **** -0.24
22282 H 22.956610378308397 127.62272273838578 65.14858008314638 H 0.0 **** 0.06
22283 H 24.53054331776542 127.90393537018566 65.931302177958 H 0.0 **** 0.06
22284 H 23.07460901311873 127.64988374123409 66.92380678701653 H 0.0 **** 0.06
22285 H 23.266653845614428 129.15686313721136 65.9964389125306 H 0.0 **** 0.06
22286 C 127.18494536515085 53.936567570473414 163.94862714987485 C 0.0 **** -0.24
22287 H 127.51319099469463 52.910420182518294 163.78736130042356 H 0.0 **** 0.06
22288 H 127.36086246427102 54.520725018439606 163.04477282583687 H 0.0 **** 0.06
22289 H 127.74587690271706 54.371137912593866 164.77681784234815 H 0.0 **** 0.06
22290 H 126.1210878316136 53.94519066271599 164.18570551904716 H 0.0 **** 0.06
22291 C 104.06096268657201 13.799124870893635 0.6754745426225881 C 0.0 **** -0.24
22292 H 103.91902277523438 14.490671465897378 1.5056430305912798 H 0.0 **** 0.06
22293 H 103.24149208015523 13.08116485404733 0.6568282568281063 H 0.0 **** 0.06
22294 H 105.0054978730973 13.269490455283496 0.8024865399890686 H 0.0 **** 0.06
22295 H 104.07901039117515 14.355190156960767 -0.26178478031114594 H 0.0 **** 0.06
22296 C 184.47022771795608 20.148312615180316 138.43236795916135 C 0.0 **** -0.24
22297 H 185.11362599164477 19.90021381365716 139.276100139375 H 0.0 **** 0.06
22298 H 183.85179714726547 19.28578617967264 138.1820937818635 H 0.0 **** 0.06
22299 H 185.084148534485 20.41781698839293 137.5731892946123 H 0.0 **** 0.06
22300 H 183.82947875665073 20.98949192379581 138.69932775927333 H 0.0 **** 0.06
22301 C 142.00880176509997 20.124907111438603 47.84283327993154 C 0.0 **** -0.24
22302 H 142.8961115667835 20.174149743597155 48.474331381984655 H 0.0 **** 0.06
22303 H 141.81230210215557 21.109128018162636 47.41591936771357 H 0.0 **** 0.06
22304 H 141.15382447893842 19.81041751215207 48.44137859685068 H 0.0 **** 0.06
22305 H 142.17399657659627 19.40674225752457 47.039165873241416 H 0.0 **** 0.06
22306 C 95.34104928551392 28.987628140287455 12.183732367301985 C 0.0 **** -0.24
22307 H 95.57785597601031 27.926412235008 12.257092748163409 H 0.0 **** 0.06
22308 H 94.29155463298974 29.107406196397903 11.913381532399747 H 0.0 **** 0.06
22309 H 95.96833350343832 29.449255908059342 11.421520019182246 H 0.0 **** 0.06
22310 H 95.52603557404444 29.467977584453138 13.145064709840995 H 0.0 **** 0.06
22311 C 119.61503144062546 0.8689460021383013 74.95327268495157 C 0.0 **** -0.24
22312 H 120.3358621578145 1.1353777807780148 74.17999682311874 H 0.0 **** 0.06
22313 H 120.13080333138983 0.36789856560528733 75.77261034014374 H 0.0 **** 0.06
22314 H 118.86269431667536 0.20081669145241676 74.5338547016438 H 0.0 **** 0.06
22315 H 119.13186299882149 1.7722217333673598 75.32591135218071 H 0.0 **** 0.06
22316 C 64.1539270990699 68.22399262979341 145.33493219120322 C 0.0 **** -0.24
22317 H 65.01712485006436 67.56174054138685 145.40491925623152 H 0.0 **** 0.06
22318 H 63.64217226996527 68.25663328483868 146.29762683968454 H 0.0 **** 0.06
22319 H 63.46991949764646 67.85051686543864 144.57281880103687 H 0.0 **** 0.06
22320 H 64.48590407240363 69.22606659840011 145.06563981548408 H 0.0 **** 0.06
22321 C 64.66200625527489 118.53065065252044 40.527111727253555 C 0.0 **** -0.24
22322 H 63.66897638251615 118.38621035389262 40.10191174269744 H 0.0 **** 0.06
22323 H 64.69201295271976 118.10342605954203 41.52998018063579 H 0.0 **** 0.06
22324 H 64.88307622982812 119.5962600262993 40.57844461730315 H 0.0 **** 0.06
22325 H 65.40214382922322 118.03549751589345 39.89860309270574 H 0.0 **** 0.06
22326 C 81.28732266702771 43.407136518729075 80.42255412921702 C 0.0 **** -0.24
22327 H 81.74201995623021 44.30851009169005 80.01156091600797 H 0.0 **** 0.06
22328 H 82.04196424846138 42.623728174018154 80.50120426760948 H 0.0 **** 0.06
22329 H 80.48441499549358 43.07363202439183 79.7656642077831 H 0.0 **** 0.06
22330 H 80.88285737605266 43.62301599942535 81.41164727513511 H 0.0 **** 0.06
22331 C 121.2020485834668 184.8258489860895 44.56696941352038 C 0.0 **** -0.24
22332 H 120.23807648742333 184.31926135182096 44.510558832605994 H 0.0 **** 0.06
22333 H 122.00222392243982 184.10244467615456 44.41133848020809 H 0.0 **** 0.06
22334 H 121.31289984284045 185.28585050579744 45.54928808971795 H 0.0 **** 0.06
22335 H 121.25278860895243 185.5960611709495 43.79698693484073 H 0.0 **** 0.06
22336 C 81.50572147966781 130.47380114154754 127.26601310236113 C 0.0 **** -0.24
22337 H 81.52724191237007 129.65684987075275 126.54515400328442 H 0.0 **** 0.06
22338 H 80.51159838471243 130.92137411645234 127.27830470643467 H 0.0 **** 0.06
22339 H 82.24001447793795 131.2278548160532 126.9815746619755 H 0.0 **** 0.06
22340 H 81.74427622844146 130.08988768521579 128.25841951077513 H 0.0 **** 0.06
22341 C 50.33997951889842 69.38447451270292 13.57917363136852 C 0.0 **** -0.24
22342 H 51.19036411290463 69.6101080671095 14.223316415564142 H 0.0 **** 0.06
22343 H 49.65929268645563 68.7118656271152 14.101377705081916 H 0.0 **** 0.06
22344 H 50.69322212444098 68.90704726790837 12.665507808455999 H 0.0 **** 0.06
22345 H 49.81927563257413 70.30795398075736 13.329346781279895 H 0.0 **** 0.06
22346 C 129.91019665676953 86.93087011076504 107.51567166350803 C 0.0 **** -0.24
22347 H 129.35733752752202 86.5104360396774 108.35621693823704 H 0.0 **** 0.06
22348 H 130.45241100003346 87.81700248865464 107.84441374808772 H 0.0 **** 0.06
22349 H 129.21247864662837 87.20260237817818 106.72395106836011 H 0.0 **** 0.06
22350 H 130.61605220251414 86.19047510381775 107.13949279497076 H 0.0 **** 0.06
22351 C 162.73578668572267 73.4914142463533 183.03913719982245 C 0.0 **** -0.24
22352 H 163.76524525803654 73.2351717971758 182.79180304992275 H 0.0 **** 0.06
22353 H 162.1590218651321 73.60298666946345 182.1200836973203 H 0.0 **** 0.06
22354 H 162.71826392921093 74.42826717120163 183.59523241845176 H 0.0 **** 0.06
22355 H 162.2998604430739 72.69927008033764 183.6478713732746 H 0.0 **** 0.06
22356 C 90.27219522281409 170.07871433922446 103.76753877268976 C 0.0 **** -0.24
22357 H 89.2274976402896 169.79918995347856 103.62857309253582 H 0.0 **** 0.06
22358 H 90.91451792467542 169.2827692081368 103.38991955568025 H 0.0 **** 0.06
22359 H 90.46814099491904 170.23397513271297 104.82773953890268 H 0.0 **** 0.06
22360 H 90.47620252309365 171.0001407771931 103.22154543922397 H 0.0 **** 0.06
22361 C 132.89795423796005 75.3783855311163 114.80498137682874 C 0.0 **** -0.24
22362 H 133.49843953922925 75.71758673292291 113.96145349461592 H 0.0 **** 0.06
22363 H 132.44944216872693 76.23977002748492 115.30227916935702 H 0.0 **** 0.06
22364 H 133.53316895912405 74.84210754240546 115.51019308107531 H 0.0 **** 0.06
22365 H 132.1108572470692 74.7148120399744 114.44720504179593 H 0.0 **** 0.06
22366 C 7.135181874127852 51.50109574178474 149.75597153476923 C 0.0 **** -0.24
22367 H 6.539337039367027 52.40994894573349 149.83933907729372 H 0.0 **** 0.06
22368 H 6.862585209049691 50.970141805029215 148.84381894778232 H 0.0 **** 0.06
22369 H 6.947997298405959 50.86287495046686 150.61872033059356 H 0.0 **** 0.06
22370 H 8.19239290627997 51.763622578249795 149.72121739881425 H 0.0 **** 0.06
22371 C 141.10848082285167 170.8114267415864 86.75881582413784 C 0.0 **** -0.24
22372 H 141.71445501081274 171.49866758448405 86.16877374128593 H 0.0 **** 0.06
22373 H 140.74708884555014 171.3218411995436 87.65238636974685 H 0.0 **** 0.06
22374 H 141.71210110895106 169.952394558166 87.05038674456553 H 0.0 **** 0.06
22375 H 140.25972762547298 170.47387990012146 86.16445020405813 H 0.0 **** 0.06
22376 C 181.56253213610978 60.79413499141886 61.25176574955101 C 0.0 **** -0.24
22377 H 182.35235976310724 60.72164621746248 60.50456427540621 H 0.0 **** 0.06
22378 H 180.9123859161837 59.92208068026473 61.17975505193273 H 0.0 **** 0.06
22379 H 180.97921097115398 61.6985459177553 61.07578369078581 H 0.0 **** 0.06
22380 H 182.00653734358954 60.83647297944802 62.2469301897157 H 0.0 **** 0.06
22381 C 126.33285179320272 177.45239475824548 148.48572651742685 C 0.0 **** -0.24
22382 H 126.08811878375924 176.89664858125207 147.58021930120333 H 0.0 **** 0.06
22383 H 125.64776296390998 178.2940452012132 148.5903171712926 H 0.0 **** 0.06
22384 H 127.35576370002501 177.82304834986778 148.41729759909268 H 0.0 **** 0.06
22385 H 126.24055801507306 176.7974521502057 149.35136291314694 H 0.0 **** 0.06
22386 C 116.44173912518887 31.410756716678435 18.09417698408268 C 0.0 **** -0.24
22387 H 116.4647937098241 31.059421300988134 17.061873098333933 H 0.0 **** 0.06
22388 H 115.40855301871748 31.58204549685081 18.396655068335804 H 0.0 **** 0.06
22389 H 117.00262502388442 32.34204088120606 18.173019718058242 H 0.0 **** 0.06
22390 H 116.8911511821726 30.659579615021755 18.743756948705027 H 0.0 **** 0.06
22391 C 153.74217558794226 146.43042591471556 135.22095323662933 C 0.0 **** -0.24
22392 H 153.4551292923075 147.33903327844465 135.74873766880415 H 0.0 **** 0.06
22393 H 154.757003655706 146.5382620269415 134.83834282917388 H 0.0 **** 0.06
22394 H 153.05721990248526 146.26131914517703 134.3897727595135 H 0.0 **** 0.06
22395 H 153.69951061580605 145.58300935303612 135.90523697622677 H 0.0 **** 0.06
22396 C 152.62515906274308 172.72009138404562 105.55010911364285 C 0.0 **** -0.24
22397 H 151.89104614232633 171.99959108017305 105.19015233388781 H 0.0 **** 0.06
22398 H 152.90653493514793 172.47145609147844 106.57300669082197 H 0.0 **** 0.06
22399 H 152.19496039631412 173.72086684697382 105.5236341409201 H 0.0 **** 0.06
22400 H 153.508547966056 172.68696698919672 104.91127876084629 H 0.0 **** 0.06
22401 C 31.753763119382143 100.15030428734201 136.61653477514733 C 0.0 **** -0.24
22402 H 32.07019150295787 99.3068411049058 136.00418743725697 H 0.0 **** 0.06
22403 H 32.631397514226705 100.6766702104938 136.99239001154427 H 0.0 **** 0.06
22404 H 31.160886081912963 99.78713813970825 137.45616596655356 H 0.0 **** 0.06
22405 H 31.151754734320548 100.83052015529148 136.01454505294925 H 0.0 **** 0.06
22406 C 162.9580701109438 63.54491975019653 34.571136628531065 C 0.0 **** -0.24
22407 H 162.87452327552805 63.52482446334312 33.48417090315289 H 0.0 **** 0.06
22408 H 163.68637184014096 62.80064460560851 34.892706924997924 H 0.0 **** 0.06
22409 H 161.98841027879163 63.32002511287713 35.01415530766445 H 0.0 **** 0.06
22410 H 163.2830422443702 64.53513046480982 34.89206378771479 H 0.0 **** 0.06
22411 C 107.78574580385197 59.73002174850498 8.007649902503573 C 0.0 **** -0.24
22412 H 107.10262071684411 59.09199485786172 8.567792875876023 H 0.0 **** 0.06
22413 H 108.2886874550482 59.14021746340211 7.242476118512656 H 0.0 **** 0.06
22414 H 108.52639532648391 60.153112031235125 8.686466716427674 H 0.0 **** 0.06
22415 H 107.22482232745398 60.536369292608214 7.535350368381103 H 0.0 **** 0.06
22416 C 180.58492653099853 106.33706710611641 183.1059809270238 C 0.0 **** -0.24
22417 H 180.41250096643745 107.24714321041024 183.67944953208877 H 0.0 **** 0.06
22418 H 181.5333067267211 106.41516885069636 182.5751387040345 H 0.0 **** 0.06
22419 H 179.7757309828806 106.20135386597879 182.38798102428646 H 0.0 **** 0.06
22420 H 180.61635003798352 105.48265766612111 183.78273823770016 H 0.0 **** 0.06
22421 C 46.24641944460228 65.16701897086264 74.42467112181248 C 0.0 **** -0.24
22422 H 45.792193588733824 66.15768487462785 74.3841207347383 H 0.0 **** 0.06
22423 H 45.504001272410534 64.43969826006797 74.75402688408997 H 0.0 **** 0.06
22424 H 47.079727237764075 65.17959469549132 75.12802193392884 H 0.0 **** 0.06
22425 H 46.61028938543552 64.89401398742636 73.43456744691133 H 0.0 **** 0.06
22426 C 121.47851033148629 73.38455008666159 148.806665990564 C 0.0 **** -0.24
22427 H 122.44576758065273 72.94388809100786 149.0499082635419 H 0.0 **** 0.06
22428 H 120.95472015551849 73.6418009848964 149.72717518901757 H 0.0 **** 0.06
22429 H 120.88449585150448 72.66718536167798 148.23938648181831 H 0.0 **** 0.06
22430 H 121.62870791016991 74.28395610131963 148.21023003445976 H 0.0 **** 0.06
22431 C 16.05337798595852 5.200503385067442 172.56783953923508 C 0.0 **** -0.24
22432 H 16.23042219760923 6.271410163441011 172.66831036476822 H 0.0 **** 0.06
22433 H 17.0092250287759 4.6772133133217935 172.52145708059348 H 0.0 **** 0.06
22434 H 15.489972849502244 5.009217130890043 171.65410730018831 H 0.0 **** 0.06
22435 H 15.485574866979732 4.843813091776951 173.42728821157053 H 0.0 **** 0.06
22436 C 75.53425151812945 100.43519364441909 50.73069389264265 C 0.0 **** -0.24
22437 H 75.89186872074737 99.6456107802195 51.39050308098001 H 0.0 **** 0.06
22438 H 76.36123392733793 100.80453210861396 50.124284331786725 H 0.0 **** 0.06
22439 H 75.12844591612418 101.25188792897285 51.328353194436716 H 0.0 **** 0.06
22440 H 74.75416253002061 100.03988511533032 50.079777837761185 H 0.0 **** 0.06
22441 C 27.53680560283601 143.33469087294458 60.78133513427275 C 0.0 **** -0.24
22442 H 27.693511675334136 144.30345018709602 61.25551016118874 H 0.0 **** 0.06
22443 H 27.34712512727505 142.5823931282062 61.54801357000633 H 0.0 **** 0.06
22444 H 28.425569849253563 143.05987460134452 60.213309172001345 H 0.0 **** 0.06
22445 H 26.67996141809779 143.39324425283905 60.109867400624864 H 0.0 **** 0.06
22446 C 133.7149431380762 67.79500698548014 20.95888067615084 C 0.0 **** -0.24
22447 H 134.57894203243774 68.32519721033037 21.360630127164853 H 0.0 **** 0.06
22448 H 133.2708998860321 67.18015441759536 21.74198302088655 H 0.0 **** 0.06
22449 H 134.03203741725736 67.15849990271545 20.133209253519794 H 0.0 **** 0.06
22450 H 132.98090546341513 68.5164040203889 20.601668775632334 H 0.0 **** 0.06
22451 C 114.7525582720801 36.58215122632325 35.62000809817056 C 0.0 **** -0.24
22452 H 114.43845251080332 36.35162057280294 36.63886363038341 H 0.0 **** 0.06
22453 H 115.34920238410275 35.758964122751934 35.22933417597159 H 0.0 **** 0.06
22454 H 115.34880099969665 37.494511868395875 35.622014854470876 H 0.0 **** 0.06
22455 H 113.8728925211479 36.72443498454021 34.99333527347011 H 0.0 **** 0.06
22456 C 137.91026094084776 57.867032376455086 36.41748382076929 C 0.0 **** -0.24
22457 H 137.9148423755649 58.525025771810874 35.548465945817924 H 0.0 **** 0.06
22458 H 138.93448739197748 57.69607340142295 36.748792690499386 H 0.0 **** 0.06
22459 H 137.44957295589296 56.91579976609489 36.15094777230564 H 0.0 **** 0.06
22460 H 137.3407554558632 58.333888373320406 37.221857100891555 H 0.0 **** 0.06
22461 C 146.24218118422465 67.52472218176156 63.72006643982047 C 0.0 **** -0.24
22462 H 146.46462718314353 66.62513886095056 63.14452926812373 H 0.0 **** 0.06
22463 H 145.74658889293914 68.25274616705008 63.07815311970842 H 0.0 **** 0.06
22464 H 147.1704919547436 67.94922011671163 64.10257262793209 H 0.0 **** 0.06
22465 H 145.58850618549053 67.26999603950925 64.55424504775374 H 0.0 **** 0.06
22466 C 42.76483174131707 65.21424230108738 105.14026009754235 C 0.0 **** -0.24
22467 H 41.70382985754041 65.03678757715362 104.96461219422167 H 0.0 **** 0.06
22468 H 43.05557156637818 66.15856578959341 104.67857849824264 H 0.0 **** 0.06
22469 H 43.346389655130466 64.40269844091158 104.70455918729948 H 0.0 **** 0.06
22470 H 42.9527706171142 65.26122422099266 106.2135955892926 H 0.0 **** 0.06
22471 C 86.20391444508873 113.89120205677688 95.8104867141105 C 0.0 **** -0.24
22472 H 85.55939148802507 113.15837824476705 95.32530347532536 H 0.0 **** 0.06
22473 H 85.60918083842326 114.7530077037078 96.11466157818886 H 0.0 **** 0.06
22474 H 86.97809917856635 114.21127158999559 95.11319419756335 H 0.0 **** 0.06
22475 H 86.66883938062902 113.44137350655132 96.68761523196862 H 0.0 **** 0.06
22476 C 111.17903343107605 107.39691960215255 30.912397373556757 C 0.0 **** -0.24
22477 H 110.88160746146252 108.40937796345555 31.185586363157483 H 0.0 **** 0.06
22478 H 110.3553683581041 106.71041503123611 31.10891376108387 H 0.0 **** 0.06
22479 H 112.04683887429735 107.10142359255347 31.50225090615308 H 0.0 **** 0.06
22480 H 111.43321963294841 107.36689557686852 29.852866677312306 H 0.0 **** 0.06
22481 C 46.37039001284916 171.76547672803898 46.93364173655121 C 0.0 **** -0.24
22482 H 47.38466791057712 171.56489029730443 47.28041518058832 H 0.0 **** 0.06
22483 H 45.798694665902076 172.23262582498162 47.735401369669006 H 0.0 **** 0.06
22484 H 45.89424385516622 170.82844199652806 46.64507093116994 H 0.0 **** 0.06
22485 H 46.40662939584982 172.43469333971547 46.07419354735512 H 0.0 **** 0.06
22486 C 59.81050669221895 28.698046683316647 64.05806098048538 C 0.0 **** -0.24
22487 H 60.37065540484605 28.20687645640146 63.26200595324879 H 0.0 **** 0.06
22488 H 58.99183978995899 29.273309008791784 63.62458070801735 H 0.0 **** 0.06
22489 H 60.47247508684262 29.36457131828888 64.61016160375179 H 0.0 **** 0.06
22490 H 59.40658687778813 27.944485645225143 64.73516285056864 H 0.0 **** 0.06
22491 C 111.1158796514253 67.10445513027408 84.64024384788905 C 0.0 **** -0.24
22492 H 111.2220184666665 66.89862262526626 83.57562660736862 H 0.0 **** 0.06
22493 H 110.06922645453102 67.30991825053957 84.86818329868558 H 0.0 **** 0.06
22494 H 111.7216035646752 67.97203645466345 84.90424873279127 H 0.0 **** 0.06
22495 H 111.44997186971085 66.2401595199993 85.2128290475174 H 0.0 **** 0.06
22496 C 25.106787186846873 78.85162181969841 153.22442326977017 C 0.0 **** -0.24
22497 H 25.53293678379245 77.87180257541182 153.4412461158795 H 0.0 **** 0.06
22498 H 25.721590516065703 79.62494253110037 153.68602843793104 H 0.0 **** 0.06
22499 H 24.09485207648325 78.9040060879698 153.62529927075417 H 0.0 **** 0.06
22500 H 25.07976315126122 79.00432830626151 152.14532697959032 H 0.0 **** 0.06
22501 C 24.757949482891206 67.4901019719636 175.14452195941868 C 0.0 **** -0.24
22502 H 23.675445108120925 67.61645240298421 175.1183834947335 H 0.0 **** 0.06
22503 H 25.224488760824386 68.42372682362392 175.46018178077648 H 0.0 **** 0.06
22504 H 25.116839962492918 67.22271160823236 174.15029341563775 H 0.0 **** 0.06
22505 H 25.014372830561342 66.69909621846183 175.84894251333523 H 0.0 **** 0.06
22506 C 64.34530244065853 132.1022891089496 171.17982753564544 C 0.0 **** -0.24
22507 H 64.07829722556309 132.2604062915094 172.22419792383863 H 0.0 **** 0.06
22508 H 64.83086455992287 132.9974419116715 170.7893748670157 H 0.0 **** 0.06
22509 H 63.444302738985584 131.89629206833843 170.60149274073618 H 0.0 **** 0.06
22510 H 65.02698680820558 131.25607018075885 171.10242418333934 H 0.0 **** 0.06
22511 C 28.76445860479977 38.34001571985618 115.10668686833378 C 0.0 **** -0.24
22512 H 28.85568193367085 38.01592243700151 116.14410108078005 H 0.0 **** 0.06
22513 H 27.772563707856605 38.08306290358553 114.73282704815733 H 0.0 **** 0.06
22514 H 29.52246424069783 37.84249689942379 114.50217894590321 H 0.0 **** 0.06
22515 H 28.905395364081286 39.419087170899274 115.05091968698031 H 0.0 **** 0.06
22516 C 116.3893978177552 92.38055049409154 182.56237852057876 C 0.0 **** -0.24
22517 H 115.35539798736812 92.65744433244747 182.35446137404261 H 0.0 **** 0.06
22518 H 116.40737804700558 91.51671392773012 183.22681245928524 H 0.0 **** 0.06
22519 H 116.9007365881385 93.21669040728095 183.03812849888936 H 0.0 **** 0.06
22520 H 116.8925201203295 92.13098817779517 181.62855040684275 H 0.0 **** 0.06
22521 C 28.144101952676763 77.54690835357246 118.53318273922359 C 0.0 **** -0.24
22522 H 28.36162245726686 78.4473732507555 117.95873938856248 H 0.0 **** 0.06
22523 H 28.149528543063568 76.68216073756423 117.86783130165968 H 0.0 **** 0.06
22524 H 27.162561724923407 77.64089322400338 118.99809670546033 H 0.0 **** 0.06
22525 H 28.901646921988913 77.41657585424554 119.30532417486849 H 0.0 **** 0.06
22526 C 0.20141533677310264 43.365479173691995 145.2895304984346 C 0.0 **** -0.24
22527 H 0.4379783847456551 42.352324196442055 145.61388411482594 H 0.0 **** 0.06
22528 H -0.07073374439931257 43.35576618357017 144.23414483617685 H 0.0 **** 0.06
22529 H 1.072060581606756 44.00536525308732 145.43462369892174 H 0.0 **** 0.06
22530 H -0.6331977195856169 43.74930184478822 145.8774927451064 H 0.0 **** 0.06
22531 C 86.43783729758324 165.55043746755663 41.117708656681486 C 0.0 **** -0.24
22532 H 86.10086541717031 164.51696436457954 41.20050762773843 H 0.0 **** 0.06
22533 H 86.23700742326902 165.9184819520748 40.11116556153081 H 0.0 **** 0.06
22534 H 87.50804093786861 165.60074985988973 41.31709818220543 H 0.0 **** 0.06
22535 H 85.90477157737804 166.16490713159558 41.84243916181515 H 0.0 **** 0.06
22536 C 24.576570222760267 33.56034976789512 48.32661400460532 C 0.0 **** -0.24
22537 H 24.09249016234324 33.573399050574224 47.350347871767525 H 0.0 **** 0.06
22538 H 23.82841980510628 33.38618470374254 49.10014154371447 H 0.0 **** 0.06
22539 H 25.063511443000095 34.519446356882455 48.50225949275239 H 0.0 **** 0.06
22540 H 25.32018255438146 32.76478105470531 48.35309888169877 H 0.0 **** 0.06
22541 C 178.58594079104344 158.96595381769885 31.23287492543031 C 0.0 **** -0.24
22542 H 178.36031263893267 158.13072376076283 31.896511929133567 H 0.0 **** 0.06
22543 H 177.94365203424434 158.91456992930242 30.354193418157323 H 0.0 **** 0.06
22544 H 179.63012497204267 158.9122611054866 30.924893025151775 H 0.0 **** 0.06
22545 H 178.41024481844815 159.90502310776498 31.757674084813317 H 0.0 **** 0.06
22546 C 104.78875566385291 88.4849688594819 36.75719703992367 C 0.0 **** -0.24
22547 H 104.9657196974009 89.3835905914868 36.166338280915284 H 0.0 **** 0.06
22548 H 104.30685366689109 88.75655515093312 37.69626716957275 H 0.0 **** 0.06
22549 H 105.73974846615705 87.99337905414858 36.96454105272852 H 0.0 **** 0.06
22550 H 104.14342816373686 87.80603904894848 36.1998048148035 H 0.0 **** 0.06
22551 C 63.41065347363869 78.80319475529262 106.31809774967883 C 0.0 **** -0.24
22552 H 62.58167458541445 78.62304477090645 107.00183916717634 H 0.0 **** 0.06
22553 H 63.07141886738373 79.43166476068039 105.49412947412037 H 0.0 **** 0.06
22554 H 63.772332828803215 77.8527781758924 105.926583107287 H 0.0 **** 0.06
22555 H 64.21732787128185 79.30741153397048 106.85053575364515 H 0.0 **** 0.06
22556 C 79.96683022894376 181.86424504122573 29.84235684271664 C 0.0 **** -0.24
22557 H 80.61159804981628 180.98853780542476 29.77035233291558 H 0.0 **** 0.06
22558 H 80.28564124277233 182.6110940620802 29.114566031095663 H 0.0 **** 0.06
22559 H 80.03426379372206 182.28256756434885 30.846803632207582 H 0.0 **** 0.06
22560 H 78.93648696869417 181.5736616100186 29.63825297465081 H 0.0 **** 0.06
22561 C 133.17216146784324 72.93156770957141 177.50611222764473 C 0.0 **** -0.24
22562 H 132.52184971699495 72.05717499416255 177.510733269583 H 0.0 **** 0.06
22563 H 133.71840311147878 72.972936868591 176.56313659056235 H 0.0 **** 0.06
22564 H 133.87877887448167 72.8632405413616 178.33299044849332 H 0.0 **** 0.06
22565 H 132.5691943963036 73.8326472250468 177.61626561803507 H 0.0 **** 0.06
22566 C 160.1642250006057 171.821963860508 125.21483380304109 C 0.0 **** -0.24
22567 H 159.95576942926698 172.8680238985428 125.44112356110936 H 0.0 **** 0.06
22568 H 161.17336786921976 171.5727093052439 125.54617841913345 H 0.0 **** 0.06
22569 H 160.0834899141765 171.65963018592853 124.13998312088744 H 0.0 **** 0.06
22570 H 159.44504283220476 171.18840123512405 125.73330728858774 H 0.0 **** 0.06
22571 C 64.34674185889943 167.85569116308972 152.87331833678638 C 0.0 **** -0.24
22572 H 63.55988701374645 168.60934817493052 152.84330295972615 H 0.0 **** 0.06
22573 H 63.898396570077324 166.86369927613907 152.92625183787982 H 0.0 **** 0.06
22574 H 64.97371771268578 168.02004209224907 153.75033626302866 H 0.0 **** 0.06
22575 H 64.95609168913498 167.93146772346608 151.97266131897538 H 0.0 **** 0.06
22576 C 169.29171757442145 92.56862305531058 12.11498304175538 C 0.0 **** -0.24
22577 H 170.3033482753769 92.63688967224596 11.7158347745874 H 0.0 **** 0.06
22578 H 168.6655185341458 93.33293590448454 11.65358731080245 H 0.0 **** 0.06
22579 H 169.31588449527715 92.7212877373621 13.194390675824167 H 0.0 **** 0.06
22580 H 168.8807414952813 91.58250408436578 11.896700146360907 H 0.0 **** 0.06
22581 C 117.80493983833371 62.2643998012112 165.54263339042149 C 0.0 **** -0.24
22582 H 117.01745440238936 61.8888986093405 166.1958622170078 H 0.0 **** 0.06
22583 H 118.60470417650039 62.69240537660292 166.14741318970974 H 0.0 **** 0.06
22584 H 117.3954030246744 63.03263747770525 164.88552999425846 H 0.0 **** 0.06
22585 H 118.20158017055063 61.44602799256482 164.94175370766567 H 0.0 **** 0.06
22586 C 70.40387934492792 29.228337845995142 148.27844647326174 C 0.0 **** -0.24
22587 H 70.95804380903779 28.96716393126644 149.17992264761438 H 0.0 **** 0.06
22588 H 69.88207961363798 28.34766062485913 147.90456544304624 H 0.0 **** 0.06
22589 H 71.09683026962773 29.590274419889397 147.51868578501805 H 0.0 **** 0.06
22590 H 69.6796714569986 30.00896758173809 148.51112331223382 H 0.0 **** 0.06
22591 C 24.733325451702783 128.91956011452925 110.20465801856169 C 0.0 **** -0.24
22592 H 23.77466121138542 129.1204645357974 109.72889800250555 H 0.0 **** 0.06
22593 H 25.115924792917212 127.9575275648341 109.8613250580335 H 0.0 **** 0.06
22594 H 24.603992222692142 128.89415460388187 111.28723081963825 H 0.0 **** 0.06
22595 H 25.44084581995554 129.70624301566454 109.94186662794671 H 0.0 **** 0.06
22596 C 151.91360217161977 156.87936350562325 98.85943060832857 C 0.0 **** -0.24
22597 H 150.96656293182588 156.84398770268803 99.39795692630177 H 0.0 **** 0.06
22598 H 152.30356553154863 157.89732197449905 98.8759384450995 H 0.0 **** 0.06
22599 H 151.75684106391384 156.56663445601353 97.82776747277028 H 0.0 **** 0.06
22600 H 152.62789922406003 156.20887243936764 99.3376029854153 H 0.0 **** 0.06
22601 C 154.8318061096121 64.80538847089234 180.18710716728867 C 0.0 **** -0.24
22602 H 154.46835844480256 63.84198574592689 180.54304581194864 H 0.0 **** 0.06
22603 H 154.51670321033862 64.95186234879375 179.1531120157612 H 0.0 **** 0.06
22604 H 155.9198447412836 64.82720760271538 180.2423720414749 H 0.0 **** 0.06
22605 H 154.41966894081872 65.60043538992856 180.808172947545 H 0.0 **** 0.06
22606 C 2.3435679009675994 147.7848664525938 150.79720629185488 C 0.0 **** -0.24
22607 H 2.4647240469822407 147.75697817470294 149.71418745430506 H 0.0 **** 0.06
22608 H 2.98732865469799 147.03251273570876 151.25410712087148 H 0.0 **** 0.06
22609 H 1.3045373198149264 147.575949179638 151.0515473684068 H 0.0 **** 0.06
22610 H 2.6174040885329646 148.77236736790354 151.16856736501754 H 0.0 **** 0.06
22611 C 139.1861188211475 84.53249724302657 86.2831978610716 C 0.0 **** -0.24
22612 H 140.22251272422676 84.3288100787397 86.55247389081107 H 0.0 **** 0.06
22613 H 138.64477925821876 84.88339241465252 87.16192843714352 H 0.0 **** 0.06
22614 H 138.72213425418528 83.61963590434254 85.91046089342613 H 0.0 **** 0.06
22615 H 139.15577147246591 85.29861084277627 85.5074121991246 H 0.0 **** 0.06
22616 C 99.06103130167946 62.47259948581484 18.23001907011104 C 0.0 **** -0.24
22617 H 99.53118564317771 62.79864454373359 17.302332229132446 H 0.0 **** 0.06
22618 H 99.78230646910475 62.5345640693094 19.045134335621242 H 0.0 **** 0.06
22619 H 98.72050820015414 61.443468205490774 18.12249162239999 H 0.0 **** 0.06
22620 H 98.20774651392605 63.116028090850136 18.450264674501824 H 0.0 **** 0.06
22621 C 115.20042013601953 165.82868145683096 95.60514135000399 C 0.0 **** -0.24
22622 H 114.54844138027825 165.90768092261132 96.47470051048963 H 0.0 **** 0.06
22623 H 115.1683489933976 166.7616464508927 95.04138417367498 H 0.0 **** 0.06
22624 H 114.86321013403973 165.00866386092676 94.9715437589221 H 0.0 **** 0.06
22625 H 116.221671731255 165.63701613263888 95.9338964834332 H 0.0 **** 0.06
22626 C 62.92337970784223 112.19250259150682 78.83944017287946 C 0.0 **** -0.24
22627 H 62.81108563764428 111.16826782212028 79.19605699875468 H 0.0 **** 0.06
22628 H 62.17648528708571 112.82669256974258 79.31679240583438 H 0.0 **** 0.06
22629 H 62.78490943332713 112.2169715145972 77.75839686840874 H 0.0 **** 0.06
22630 H 63.92144122180247 112.55566726538775 79.08635922646792 H 0.0 **** 0.06
22631 C 146.46934072040634 94.37105550906927 85.5556128727734 C 0.0 **** -0.24
22632 H 146.48150299412828 95.44074600545684 85.76614481635431 H 0.0 **** 0.06
22633 H 146.0654295502962 94.2021492532977 84.55741809931396 H 0.0 **** 0.06
22634 H 145.84584676274483 93.86289331014808 86.29104323717183 H 0.0 **** 0.06
22635 H 147.48523865813814 93.97954295657655 85.60726228721762 H 0.0 **** 0.06
22636 C 37.31702280916065 162.55921010184016 36.522711742578394 C 0.0 **** -0.24
22637 H 38.35497346921005 162.86307390050249 36.38868349582802 H 0.0 **** 0.06
22638 H 37.284406762118905 161.57648380369415 36.99435102021275 H 0.0 **** 0.06
22639 H 36.82363959818193 162.51218203995413 35.55218677212207 H 0.0 **** 0.06
22640 H 36.805279069757574 163.28372384745137 37.15587327865944 H 0.0 **** 0.06
22641 C 59.743712310944005 102.68473888633666 149.69157501143846 C 0.0 **** -0.24
22642 H 59.97688341926991 103.53887896958908 149.05525250386358 H 0.0 **** 0.06
22643 H 59.83207222734963 101.76649811103552 149.11203317874947 H 0.0 **** 0.06
22644 H 58.72514121382194 102.78131196982328 150.06926927482476 H 0.0 **** 0.06
22645 H 60.44089017422762 102.65519276009171 150.52909839818565 H 0.0 **** 0.06
22646 C 15.713421955757156 132.3255437798063 105.41798536302133 C 0.0 **** -0.24
22647 H 15.434968277661682 132.6744511131031 106.4124407858157 H 0.0 **** 0.06
22648 H 14.907790227941149 131.71491191618537 105.00905305184216 H 0.0 **** 0.06
22649 H 16.623139556510523 131.73012960525642 105.48443964621998 H 0.0 **** 0.06
22650 H 15.88758148708635 133.1831270103919 104.7673342669425 H 0.0 **** 0.06
22651 C 10.503885730554963 123.8390492254291 74.46358909185324 C 0.0 **** -0.24
22652 H 10.770332113074858 122.87629981767329 74.89973960080783 H 0.0 **** 0.06
22653 H 10.955098978353647 124.64038378800178 75.05030276398136 H 0.0 **** 0.06
22654 H 9.419330036195241 123.95098893508937 74.46876868246702 H 0.0 **** 0.06
22655 H 10.869247049573765 123.88799592982336 73.43876489148744 H 0.0 **** 0.06
22656 C 100.63112634906355 110.80077339790127 29.351566887054844 C 0.0 **** -0.24
22657 H 100.16688495211821 111.08903166823025 30.294478573333095 H 0.0 **** 0.06
22658 H 100.61439486669457 111.64736528428178 28.665239270544845 H 0.0 **** 0.06
22659 H 100.07900834839455 109.96803152440255 28.914485568404473 H 0.0 **** 0.06
22660 H 101.66181172236315 110.49830015827301 29.531780423587634 H 0.0 **** 0.06
22661 C 92.87934329892107 66.67714701517092 41.08301726727109 C 0.0 **** -0.24
22662 H 92.25331388363423 66.15723796567556 40.358809369009734 H 0.0 **** 0.06
22663 H 92.9301083029352 67.73595934875586 40.82592436431783 H 0.0 **** 0.06
22664 H 93.88274473337975 66.25132889562168 41.06808877282283 H 0.0 **** 0.06
22665 H 92.45183371282207 66.56642936351285 42.07920976966625 H 0.0 **** 0.06
22666 C 30.53543110375864 180.4568231782666 86.48668422133034 C 0.0 **** -0.24
22667 H 31.095105543605086 181.32417375860007 86.83733627817946 H 0.0 **** 0.06
22668 H 29.500342064242943 180.74471406774563 86.29974330202475 H 0.0 **** 0.06
22669 H 30.565397859677915 179.67395574653602 87.24404207797 H 0.0 **** 0.06
22670 H 30.982657332339784 180.0866695546969 85.56363851184977 H 0.0 **** 0.06
22671 C 51.317103423927776 135.7878350965659 1.577587030741796 C 0.0 **** -0.24
22672 H 50.5941842721293 134.99670319805438 1.3795628585154702 H 0.0 **** 0.06
22673 H 51.5149652067373 136.3385113641092 0.6571850740590435 H 0.0 **** 0.06
22674 H 52.24530605250102 135.34809886219853 1.9449497013301595 H 0.0 **** 0.06
22675 H 50.91528670556299 136.46795429240973 2.3281711699586083 H 0.0 **** 0.06
22676 C 163.51013110258 19.445869736123257 174.60762871081693 C 0.0 **** -0.24
22677 H 163.92535671099074 20.449002639091987 174.70986110275388 H 0.0 **** 0.06
22678 H 162.42120179227322 19.501583008734542 174.60971934339778 H 0.0 **** 0.06
22679 H 163.84347149689813 18.828975482598054 175.44208723109764 H 0.0 **** 0.06
22680 H 163.8500529416158 19.005358187796645 173.6707786362717 H 0.0 **** 0.06
22681 C 128.13788011788307 88.27463249614262 75.63356957378613 C 0.0 **** -0.24
22682 H 127.96810632864464 89.35064312129442 75.62189374145254 H 0.0 **** 0.06
22683 H 127.8958115283757 87.87912990430944 76.61994012140053 H 0.0 **** 0.06
22684 H 129.18403179163903 88.06881978022251 75.40514850186861 H 0.0 **** 0.06
22685 H 127.50346575211483 87.79908065691923 74.8850034473171 H 0.0 **** 0.06
22686 C 30.944072634401266 107.98122994946722 1.1068935652549783 C 0.0 **** -0.24
22687 H 30.972815996226075 107.81636447298062 0.030105962418844 H 0.0 **** 0.06
22688 H 30.0444243385939 107.52545464213885 1.519989398581913 H 0.0 **** 0.06
22689 H 30.93489831888951 109.05161202284775 1.3098156793662952 H 0.0 **** 0.06
22690 H 31.824414071357353 107.53163347984069 1.566709119172458 H 0.0 **** 0.06
22691 C 21.806143700387565 159.1583496878806 69.95026462761771 C 0.0 **** -0.24
22692 H 21.859941647311643 159.8091945587572 69.07708531110947 H 0.0 **** 0.06
22693 H 22.107840631639817 158.14921483673692 69.6694244940107 H 0.0 **** 0.06
22694 H 20.78418327293403 159.1406044873324 70.32730749730224 H 0.0 **** 0.06
22695 H 22.473676460857774 159.5354156964498 70.72463378080194 H 0.0 **** 0.06
22696 C 166.98445304813262 64.84832597876688 70.51548678480628 C 0.0 **** -0.24
22697 H 166.3039150158204 65.70051042032412 70.51264804984567 H 0.0 **** 0.06
22698 H 167.40241974504278 64.72044346688912 71.51454899166777 H 0.0 **** 0.06
22699 H 167.79129628358805 65.0260496514692 69.80412002588909 H 0.0 **** 0.06
22700 H 166.44051932237468 63.94766918254349 70.23073987745258 H 0.0 **** 0.06
22701 C 71.67955555490063 120.77823311004057 165.71439349807417 C 0.0 **** -0.24
22702 H 71.26096916874063 121.61618256051678 166.2719430674264 H 0.0 **** 0.06
22703 H 71.9354822000248 121.10484353579237 164.70619185221847 H 0.0 **** 0.06
22704 H 70.94479104264315 119.97470743810398 165.66107393278574 H 0.0 **** 0.06
22705 H 72.57626465035267 120.41917187929126 166.2191371814705 H 0.0 **** 0.06
22706 C 72.08589182138344 11.183172433346783 53.970782667303354 C 0.0 **** -0.24
22707 H 71.09845135528171 11.314399270140427 54.4123154343705 H 0.0 **** 0.06
22708 H 72.6988635291159 12.058136486294472 54.186731620872365 H 0.0 **** 0.06
22709 H 71.98843548458781 11.063185878763704 52.89159738985143 H 0.0 **** 0.06
22710 H 72.55742231417844 10.29519811055107 54.39379448873649 H 0.0 **** 0.06
22711 C 102.69992922869393 163.05110407653157 36.866018520661015 C 0.0 **** -0.24
22712 H 103.69885553089465 163.25139816507397 36.47834354329511 H 0.0 **** 0.06
22713 H 102.50895753893128 163.69128485172004 37.727618059707765 H 0.0 **** 0.06
22714 H 102.63075249942021 162.0051916150939 37.16651825278292 H 0.0 **** 0.06
22715 H 101.96196414512794 163.2560484720795 36.09054725127433 H 0.0 **** 0.06
22716 C 104.94146328165829 91.55783948421163 109.2370650493407 C 0.0 **** -0.24
22717 H 105.67315502832781 92.32233652735965 108.97753894397555 H 0.0 **** 0.06
22718 H 105.0059656296778 91.3412079512375 110.30331013652265 H 0.0 **** 0.06
22719 H 105.14597440743933 90.65098957820908 108.66825066663752 H 0.0 **** 0.06
22720 H 103.93990482888927 91.91786371737385 108.99872366378791 H 0.0 **** 0.06
22721 C 31.226275106433036 20.25038824760464 160.13942920730966 C 0.0 **** -0.24
22722 H 31.64987217289473 21.091991082285766 160.68764044506426 H 0.0 **** 0.06
22723 H 30.303109998437435 20.562235626425235 159.65092152116094 H 0.0 **** 0.06
22724 H 31.01422403769061 19.43534470961974 160.83155906772703 H 0.0 **** 0.06
22725 H 31.93919730330464 19.912529754197244 159.38755692202474 H 0.0 **** 0.06
22726 C 14.78097276479518 136.09712891692016 76.06278554242132 C 0.0 **** -0.24
22727 H 15.674304249028282 135.76209142508696 76.58938224678154 H 0.0 **** 0.06
22728 H 13.923876217595911 136.04959768612792 76.73455161414682 H 0.0 **** 0.06
22729 H 14.60450830222078 135.45460908287225 75.20033849377246 H 0.0 **** 0.06
22730 H 14.92231286912427 137.12549541580984 75.72701815972015 H 0.0 **** 0.06
22731 C 136.21911582613183 134.53260775840084 172.6210596266005 C 0.0 **** -0.24
22732 H 135.89264030108694 135.56519867061502 172.73819657404275 H 0.0 **** 0.06
22733 H 135.37196295252585 133.86410744548175 172.77582626950408 H 0.0 **** 0.06
22734 H 136.99471238153984 134.31155515426485 173.35547717419817 H 0.0 **** 0.06
22735 H 136.6177794436171 134.38850785606087 171.6168535212185 H 0.0 **** 0.06
22736 C 110.35325067983659 79.06662854645442 141.16167524545688 C 0.0 **** -0.24
22737 H 110.17523028605085 78.03293996038018 141.45888900766585 H 0.0 **** 0.06
22738 H 110.00273592831435 79.21690975273117 140.14069761359644 H 0.0 **** 0.06
22739 H 111.41964372310723 79.28160128662424 141.21518147126068 H 0.0 **** 0.06
22740 H 109.8137148246938 79.7355704177084 141.83332116137962 H 0.0 **** 0.06
22741 C 181.39480776590364 139.77960281572655 161.79244742974817 C 0.0 **** -0.24
22742 H 181.69081541547106 139.7373513173768 160.74487088654024 H 0.0 **** 0.06
22743 H 180.4955350927006 139.18161382716602 161.94085294535398 H 0.0 **** 0.06
22744 H 181.19379015639004 140.81386418864588 162.07118689397646 H 0.0 **** 0.06
22745 H 182.19970050201312 139.385641296548 162.41415347316786 H 0.0 **** 0.06
22746 C 169.48681935126774 44.320917101480404 70.38028144564507 C 0.0 **** -0.24
22747 H 170.05273222213492 44.92115418494467 71.09329438373982 H 0.0 **** 0.06
22748 H 168.78634837350887 44.96003141212549 69.84204665645382 H 0.0 **** 0.06
22749 H 168.93596412076982 43.54581317083489 70.91396655721991 H 0.0 **** 0.06
22750 H 170.1729173115745 43.855967008577466 69.67201216466964 H 0.0 **** 0.06
22751 C 55.26449111080575 70.49580870613022 182.43437274344583 C 0.0 **** -0.24
22752 H 55.37357588691745 71.07215865859837 181.51562054118065 H 0.0 **** 0.06
22753 H 54.92982826464322 71.1512378914614 183.2378176395818 H 0.0 **** 0.06
22754 H 56.22509655943492 70.05524418220323 182.70140539525562 H 0.0 **** 0.06
22755 H 54.53178249839141 69.70340895666774 182.28059336539565 H 0.0 **** 0.06
22756 C 157.6813680450173 100.47366003451127 10.834952913188658 C 0.0 **** -0.24
22757 H 158.5244657863098 101.03131409366758 10.426788094417553 H 0.0 **** 0.06
22758 H 157.795494877778 99.41649594519926 10.593976706736584 H 0.0 **** 0.06
22759 H 156.75466889085507 100.84823146372115 10.400030749418917 H 0.0 **** 0.06
22760 H 157.65245723061463 100.599303695655 11.91731431267511 H 0.0 **** 0.06
22761 C 174.92892554275437 128.59127842866252 51.91413207753183 C 0.0 **** -0.24
22762 H 174.11565441933078 128.9589963725182 52.53936558829916 H 0.0 **** 0.06
22763 H 175.87088881549795 128.67921369472225 52.45605823492484 H 0.0 **** 0.06
22764 H 174.97931579515705 129.18141109232744 50.99934870800939 H 0.0 **** 0.06
22765 H 174.74904532986073 127.54596675091794 51.66212815016027 H 0.0 **** 0.06
22766 C 3.3732995436842543 178.23049523680015 95.12585622173496 C 0.0 **** -0.24
22767 H 4.027191475385848 177.61872491351585 95.7466538979617 H 0.0 **** 0.06
22768 H 2.551109770677357 177.61990550623403 94.75228490596179 H 0.0 **** 0.06
22769 H 3.9405140516012693 178.63073892670963 94.28563955401687 H 0.0 **** 0.06
22770 H 2.974554798404597 179.05364887404386 95.71979233901259 H 0.0 **** 0.06
22771 C 10.617941949353153 100.99132181885925 23.749170455580625 C 0.0 **** -0.24
22772 H 10.23700254582615 101.40973563897371 22.81835717030988 H 0.0 **** 0.06
22773 H 11.679532725334226 101.22265528406662 23.844565697774186 H 0.0 **** 0.06
22774 H 10.481431342566516 99.91009973397767 23.744070382710817 H 0.0 **** 0.06
22775 H 10.074358347172485 101.4222479333177 24.590311899871082 H 0.0 **** 0.06
22776 C 52.05002556985872 65.25868090841293 180.74249291276314 C 0.0 **** -0.24
22777 H 52.29720527720791 64.81331479748013 181.70652693718088 H 0.0 **** 0.06
22778 H 51.02698882762073 64.99626624095417 180.4734915693341 H 0.0 **** 0.06
22779 H 52.73476126157571 64.88241925464031 179.9822202168049 H 0.0 **** 0.06
22780 H 52.14223642658439 66.3429189579374 180.80939869870244 H 0.0 **** 0.06
22781 C 79.43587532979484 71.33087860524029 3.993199134639724 C 0.0 **** -0.24
22782 H 79.18539745532797 70.29113974763668 4.202372010401973 H 0.0 **** 0.06
22783 H 79.1440066580115 71.95191673517314 4.840885819740748 H 0.0 **** 0.06
22784 H 78.90555314706154 71.66014466744286 3.100822222167352 H 0.0 **** 0.06
22785 H 80.50986865414939 71.41908315060482 3.8311107448121504 H 0.0 **** 0.06
22786 C 32.65366399096317 112.11788339422499 8.563315181869314 C 0.0 **** -0.24
22787 H 32.40755833563125 112.10646622941114 9.625327436746147 H 0.0 **** 0.06
22788 H 32.559185517070574 111.10989455171735 8.158892525437125 H 0.0 **** 0.06
22789 H 33.67616623909879 112.46872906471928 8.431168365928215 H 0.0 **** 0.06
22790 H 31.969001285043703 112.78516844174588 8.03922928963567 H 0.0 **** 0.06
22791 C 12.54566865085502 28.209808063187594 42.36219735833839 C 0.0 **** -0.24
22792 H 13.587864631684113 28.499189548611724 42.22437400540923 H 0.0 **** 0.06
22793 H 12.245815574418657 28.410742477749054 43.39098395978198 H 0.0 **** 0.06
22794 H 12.43442839664226 27.14545354289021 42.15119625685537 H 0.0 **** 0.06
22795 H 11.916788853164945 28.78212772643508 41.68118433745428 H 0.0 **** 0.06
22796 C 99.25887921942113 66.55629727372626 133.85915385496497 C 0.0 **** -0.24
22797 H 99.90931571660037 65.74759532344821 134.1904872987809 H 0.0 **** 0.06
22798 H 98.61617999772402 66.86616118099123 134.68324452663313 H 0.0 **** 0.06
22799 H 98.64395428515066 66.21030961460383 133.02868518382581 H 0.0 **** 0.06
22800 H 99.8660668782096 67.4011229758617 133.53419841062015 H 0.0 **** 0.06
22801 C 82.5217925108092 43.037186116085294 37.47801627560395 C 0.0 **** -0.24
22802 H 82.56000456249033 43.593494936012576 36.54133452367458 H 0.0 **** 0.06
22803 H 83.16653629205084 43.51958113852399 38.21239414320223 H 0.0 **** 0.06
22804 H 82.86463187271708 42.01646424600979 37.307020916969776 H 0.0 **** 0.06
22805 H 81.49711705267651 43.0194624414148 37.84836938224913 H 0.0 **** 0.06
22806 C 135.35269896973608 115.44776547549132 145.25983434640733 C 0.0 **** -0.24
22807 H 136.10341993641924 115.49762918528062 144.47024138859436 H 0.0 **** 0.06
22808 H 135.67324369429025 116.05756278019759 146.10433045763676 H 0.0 **** 0.06
22809 H 135.23441118906686 114.41337910597069 145.5827200927568 H 0.0 **** 0.06
22810 H 134.4017129950841 115.82199328370108 144.8811595786784 H 0.0 **** 0.06
22811 C 110.19587871530273 50.91314164217266 65.83885669609877 C 0.0 **** -0.24
22812 H 109.33005169810325 50.93057695931523 65.17731385031952 H 0.0 **** 0.06
22813 H 110.32635005572216 51.895691307966615 66.29138705393261 H 0.0 **** 0.06
22814 H 111.08593294506487 50.656047903923735 65.26330854274589 H 0.0 **** 0.06
22815 H 110.04109986947869 50.16998499879719 66.62043014154975 H 0.0 **** 0.06
22816 C 41.550612369397896 14.008716905116415 31.90565006286407 C 0.0 **** -0.24
22817 H 41.414833777016895 14.098529050308628 30.827950980754864 H 0.0 **** 0.06
22818 H 40.937381276747715 13.18961903769653 32.28197264514621 H 0.0 **** 0.06
22819 H 41.24911524497574 14.938440164941596 32.38829228073767 H 0.0 **** 0.06
22820 H 42.59913675588842 13.8093129535211 32.12434165116669 H 0.0 **** 0.06
22821 C 85.60817325963929 38.05971112172844 138.57667511884057 C 0.0 **** -0.24
22822 H 85.4381067847011 37.128606878214924 138.03725263673653 H 0.0 **** 0.06
22823 H 86.11673492123465 37.847518534422164 139.51674516300244 H 0.0 **** 0.06
22824 H 84.65214723025129 38.541271747919325 138.7798620639332 H 0.0 **** 0.06
22825 H 86.2257773135333 38.72234894570008 137.96998020173345 H 0.0 **** 0.06
22826 C 150.90811033866484 153.55498425405358 45.44393565433364 C 0.0 **** -0.24
22827 H 150.08441401582434 154.20523912662983 45.14703775083828 H 0.0 **** 0.06
22828 H 151.51035498603096 153.30904875388893 44.569605930392925 H 0.0 **** 0.06
22829 H 150.50780083008001 152.63949243877045 45.880086326721965 H 0.0 **** 0.06
22830 H 151.5269060339366 154.06807485274953 46.180248287533516 H 0.0 **** 0.06
22831 C 174.23771218540045 59.76822668454649 32.60055191455035 C 0.0 **** -0.24
22832 H 173.5839031507707 58.89627454391436 32.579753445587684 H 0.0 **** 0.06
22833 H 175.03858113848747 59.60542895360494 33.322108698724406 H 0.0 **** 0.06
22834 H 173.66049093035866 60.647067639149356 32.88855290770921 H 0.0 **** 0.06
22835 H 174.66614664615474 59.923923696509505 31.61038792838444 H 0.0 **** 0.06
22836 C 152.14794754295485 94.50749424095527 89.69523326342211 C 0.0 **** -0.24
22837 H 152.52779731069995 94.8268231111878 88.72477224485938 H 0.0 **** 0.06
22838 H 152.2547160064875 93.42598143475611 89.78845852518019 H 0.0 **** 0.06
22839 H 151.09511871109657 94.77741106215295 89.77843618847474 H 0.0 **** 0.06
22840 H 152.71416933891686 94.99849874150918 90.48654471639806 H 0.0 **** 0.06
22841 C 182.48228927881115 170.1691841323318 176.0585896131566 C 0.0 **** -0.24
22842 H 183.45234268242507 169.78703655683273 176.37752534989622 H 0.0 **** 0.06
22843 H 182.52900387462066 170.4423498059589 175.0041928018511 H 0.0 **** 0.06
22844 H 182.22560938622448 171.04784626085276 176.65017278983726 H 0.0 **** 0.06
22845 H 181.72377815534486 169.3998151475543 176.2018222776797 H 0.0 **** 0.06
22846 C 85.20810720329989 30.70885243402725 112.27103370616273 C 0.0 **** -0.24
22847 H 86.21193489292851 31.09205344588085 112.08551460271677 H 0.0 **** 0.06
22848 H 85.11087006131557 30.439893439164138 113.32311990737993 H 0.0 **** 0.06
22849 H 85.03513904380651 29.828629801373808 111.65236620248699 H 0.0 **** 0.06
22850 H 84.47533277189014 31.477081258866164 112.02265801002294 H 0.0 **** 0.06
22851 C 2.292788267992421 138.199941514407 93.09377498868912 C 0.0 **** -0.24
22852 H 1.4555035071075508 138.34962819891894 93.77587065927185 H 0.0 **** 0.06
22853 H 3.131920150564042 137.76745886020916 93.63905547695401 H 0.0 **** 0.06
22854 H 2.5905169760549995 139.15786181468707 92.66791977188637 H 0.0 **** 0.06
22855 H 1.9916386539604218 137.52418718688045 92.29371227518311 H 0.0 **** 0.06
22856 C 171.94788359302987 84.77680964307649 35.950345185704975 C 0.0 **** -0.24
22857 H 170.89629770940456 85.0414155295544 36.064757764197424 H 0.0 **** 0.06
22858 H 172.02646971853602 83.75311175364214 35.58512990567493 H 0.0 **** 0.06
22859 H 172.44875156915094 84.8584563382957 36.91507077054729 H 0.0 **** 0.06
22860 H 172.41757870087852 85.45599169252267 35.2384339357223 H 0.0 **** 0.06
22861 C 61.551398077844084 37.65084543874737 98.40828898918811 C 0.0 **** -0.24
22862 H 61.66654105690222 36.8412821553398 99.1290266307984 H 0.0 **** 0.06
22863 H 61.85821267172503 37.303947979546365 97.42081070705298 H 0.0 **** 0.06
22864 H 62.17306881998297 38.495243719797784 98.70715921513398 H 0.0 **** 0.06
22865 H 60.50735083853037 37.962000398831776 98.37612828665054 H 0.0 **** 0.06
22866 C 61.30337440211932 184.1341469540358 181.0627951382317 C 0.0 **** -0.24
22867 H 60.43469684664581 184.3280760458313 180.43257913810737 H 0.0 **** 0.06
22868 H 61.28311984772547 183.09773392618686 181.40038388580774 H 0.0 **** 0.06
22869 H 61.280424502234254 184.79956235126545 181.92628516981722 H 0.0 **** 0.06
22870 H 62.21371226337166 184.31273255944794 180.49078594623768 H 0.0 **** 0.06
22871 C 72.19976764108821 85.71619461891783 92.25165482107819 C 0.0 **** -0.24
22872 H 71.13722388993727 85.70378480389417 92.49450279256119 H 0.0 **** 0.06
22873 H 72.35423202871777 85.26144026508689 91.27301770702711 H 0.0 **** 0.06
22874 H 72.75053854860255 85.15324121003124 93.00590561240175 H 0.0 **** 0.06
22875 H 72.55668253150918 86.74545051718746 92.23464323741193 H 0.0 **** 0.06
22876 C 136.27384069586554 159.11304262745966 143.68272715254548 C 0.0 **** -0.24
22877 H 135.28041622837685 158.69652174790622 143.51596219895907 H 0.0 **** 0.06
22878 H 136.378128693267 159.39143500636948 144.73170812279045 H 0.0 **** 0.06
22879 H 136.40783698765034 159.99517755675487 143.05749975635933 H 0.0 **** 0.06
22880 H 137.0271257951718 158.36766333366796 143.42765533818203 H 0.0 **** 0.06
22881 C 145.38158849743866 67.54737863736855 107.87537565372956 C 0.0 **** -0.24
22882 H 144.40876634925263 67.3235445518606 108.31256522526171 H 0.0 **** 0.06
22883 H 146.02287831363188 66.6691261964468 107.94537114997597 H 0.0 **** 0.06
22884 H 145.8394832074582 68.37671699234419 108.41480192240188 H 0.0 **** 0.06
22885 H 145.254620662322 67.82197419398835 106.82727410318283 H 0.0 **** 0.06
22886 C 28.127191902546826 182.79306175512272 148.85073934842757 C 0.0 **** -0.24
22887 H 27.44659304634149 182.17046670998766 148.27066439572232 H 0.0 **** 0.06
22888 H 28.990722949274016 182.2019285665882 149.15432793173142 H 0.0 **** 0.06
22889 H 27.611873865516316 183.16714443641948 149.7357725953189 H 0.0 **** 0.06
22890 H 28.458700814649205 183.6341667681077 148.24074295917714 H 0.0 **** 0.06
22891 C 13.050935482043599 77.44128041899634 172.31790186558064 C 0.0 **** -0.24
22892 H 13.394196980773046 77.1546546109994 173.3123064968701 H 0.0 **** 0.06
22893 H 12.958573213941577 76.55103095780487 171.69551253410285 H 0.0 **** 0.06
22894 H 13.770027748190444 78.12651178527157 171.86935460614401 H 0.0 **** 0.06
22895 H 12.08130295922038 77.93247927745219 172.3957273175958 H 0.0 **** 0.06
22896 C 181.36823082403885 164.48413707300085 23.420734661948813 C 0.0 **** -0.24
22897 H 181.76045128506976 164.29419954445297 24.41975128072798 H 0.0 **** 0.06
22898 H 181.694088460915 163.6915219584252 22.746023996349976 H 0.0 **** 0.06
22899 H 181.74028697805667 165.44294976829258 23.060053652869954 H 0.0 **** 0.06
22900 H 180.27968434310958 164.5065765562619 23.456222081243496 H 0.0 **** 0.06
22901 C 162.01854732320595 88.58984979110983 70.22428705552625 C 0.0 **** -0.24
22902 H 162.3530571780385 89.61383243575358 70.387544639444 H 0.0 **** 0.06
22903 H 162.6882132349985 87.90176444792024 70.74091120120431 H 0.0 **** 0.06
22904 H 162.02551201781236 88.37103143158384 69.15672657960135 H 0.0 **** 0.06
22905 H 161.00651929879828 88.47263791145161 70.61240691848758 H 0.0 **** 0.06
22906 C 159.12491272375502 171.3349270655987 30.178368172004326 C 0.0 **** -0.24
22907 H 159.0257137074577 170.35995347032934 30.65550170271922 H 0.0 **** 0.06
22908 H 159.76016457863923 171.97585786049657 30.78952866984308 H 0.0 **** 0.06
22909 H 158.14061152438234 171.79004942949229 30.074333975481096 H 0.0 **** 0.06
22910 H 159.57374599017734 171.2123509983296 29.192553191908118 H 0.0 **** 0.06
22911 C 80.80043964863721 87.69106628313739 100.43886461868313 C 0.0 **** -0.24
22912 H 80.16766905761703 88.56960473068568 100.56727783363316 H 0.0 **** 0.06
22913 H 81.36975367977593 87.78635094136632 99.51422591498856 H 0.0 **** 0.06
22914 H 80.1779151892069 86.79765149528134 100.3931626451173 H 0.0 **** 0.06
22915 H 81.48733403224757 87.61199669579526 101.28233275930829 H 0.0 **** 0.06
22916 C 25.77491326132025 81.5816719332379 148.45084027302755 C 0.0 **** -0.24
22917 H 25.76911270771251 81.66851278104389 147.36401535598884 H 0.0 **** 0.06
22918 H 25.59021546743358 80.5458573489115 148.73361086454696 H 0.0 **** 0.06
22919 H 24.996124266862807 82.21848823225561 148.86927550427305 H 0.0 **** 0.06
22920 H 26.745869499660273 81.89572976975543 148.83409218226222 H 0.0 **** 0.06
22921 C 117.34029114669771 70.93156684247896 33.0944392033619 C 0.0 **** -0.24
22922 H 117.46287586276345 70.56243389425902 34.112755569189005 H 0.0 **** 0.06
22923 H 117.25461481840578 72.01824854157701 33.11058925406587 H 0.0 **** 0.06
22924 H 116.43779853227902 70.50247043380068 32.65934299350286 H 0.0 **** 0.06
22925 H 118.20422418159224 70.64316243819519 32.497573291040595 H 0.0 **** 0.06
22926 C 54.36754367577788 151.05851857179314 23.320478442348403 C 0.0 **** -0.24
22927 H 55.378351102305984 150.83148468140098 22.98217042725686 H 0.0 **** 0.06
22928 H 53.69961208600952 151.1092506590256 22.460415062311768 H 0.0 **** 0.06
22929 H 54.364839470192635 152.01646480244852 23.84060830322099 H 0.0 **** 0.06
22930 H 54.02845543722739 150.2752385983057 23.99833094114227 H 0.0 **** 0.06
22931 C 50.56529497688035 155.22494555442898 33.7242497696013 C 0.0 **** -0.24
22932 H 50.02557474551665 155.44144547991093 32.80284584408969 H 0.0 **** 0.06
22933 H 50.498740914500345 154.15879159079884 33.942407191603536 H 0.0 **** 0.06
22934 H 50.124602366315855 155.79176587479037 34.54478138208489 H 0.0 **** 0.06
22935 H 51.61177255519347 155.50705286052246 33.608458969921486 H 0.0 **** 0.06
22936 C 12.204649239104924 29.59747259116301 149.45891328792567 C 0.0 **** -0.24
22937 H 12.073694806697006 30.481963500153654 150.08150874804537 H 0.0 **** 0.06
22938 H 11.989705639563908 29.84910389037458 148.41971006664707 H 0.0 **** 0.06
22939 H 11.522328314395338 28.814682377226006 149.79284298506286 H 0.0 **** 0.06
22940 H 13.231642186538977 29.24287835934072 149.542542013081 H 0.0 **** 0.06
22941 C 94.57798938139562 159.6674878824993 184.48269935591526 C 0.0 **** -0.24
22942 H 95.195250217918 160.56396659775314 184.42113357612396 H 0.0 **** 0.06
22943 H 95.0893580325956 158.84053428120154 183.9906940813293 H 0.0 **** 0.06
22944 H 93.6231829597623 159.84951528505445 183.99016705520938 H 0.0 **** 0.06
22945 H 94.40530510177696 159.41677223584847 185.53021795411246 H 0.0 **** 0.06
22946 C 119.48276161965508 133.6095518238876 15.13882687748761 C 0.0 **** -0.24
22947 H 119.59229378072628 133.24566434631754 14.117277089444983 H 0.0 **** 0.06
22948 H 118.47795307757887 133.3883452492156 15.497596703705398 H 0.0 **** 0.06
22949 H 119.64723622204734 134.68756807963172 15.160074425959898 H 0.0 **** 0.06
22950 H 120.21454481723491 133.11782037431328 15.779086883376053 H 0.0 **** 0.06
22951 C 142.91629168903387 64.85255854871419 103.3629246659995 C 0.0 **** -0.24
22952 H 142.61943162755102 63.9960512571584 103.96881635991396 H 0.0 **** 0.06
22953 H 143.99957238215904 64.85127418015932 103.23854751804582 H 0.0 **** 0.06
22954 H 142.60714804296515 65.77221788334546 103.85853262555413 H 0.0 **** 0.06
22955 H 142.43811099454786 64.78802267549877 102.38554873663593 H 0.0 **** 0.06
22956 C 140.2873109097054 123.56604670912407 129.7479405572459 C 0.0 **** -0.24
22957 H 139.76527373050834 122.79944020751844 129.1754765723195 H 0.0 **** 0.06
22958 H 141.17720362002325 123.88193241720825 129.20382886091704 H 0.0 **** 0.06
22959 H 140.5781915511207 123.15960972208427 130.71677790159077 H 0.0 **** 0.06
22960 H 139.62828649643905 124.4209344363718 129.8948048669696 H 0.0 **** 0.06
22961 C 50.56300679284814 173.71697722224093 68.99123225775179 C 0.0 **** -0.24
22962 H 50.426792413727185 172.8409714622698 69.62509573302168 H 0.0 **** 0.06
22963 H 50.37370626436291 173.44738310792945 67.95188500928907 H 0.0 **** 0.06
22964 H 51.58510809412007 174.08249314572026 69.09171315118249 H 0.0 **** 0.06
22965 H 49.867234543022505 174.498976575011 69.2975268624856 H 0.0 **** 0.06
22966 C 51.071837631115585 129.23764541704497 165.9878830049903 C 0.0 **** -0.24
22967 H 52.058312937241055 128.7781895185874 166.05575884197611 H 0.0 **** 0.06
22968 H 51.16314198976875 130.23257712486503 165.5504658012769 H 0.0 **** 0.06
22969 H 50.6391814119292 129.3166062742814 166.9850410333658 H 0.0 **** 0.06
22970 H 50.42805693321236 128.6221149965661 165.36029472007772 H 0.0 **** 0.06
22971 C 78.92453886962619 100.3656004979494 83.15788228925297 C 0.0 **** -0.24
22972 H 79.47894179776893 100.99010276471898 82.45827479678839 H 0.0 **** 0.06
22973 H 77.91531494886169 100.75978808350999 83.27641323464314 H 0.0 **** 0.06
22974 H 79.43149337152022 100.36474846657029 84.1233318191862 H 0.0 **** 0.06
22975 H 78.8743004397848 99.3464191539432 82.7742863315166 H 0.0 **** 0.06
22976 C 16.40043309618767 131.5659686195852 42.12103005578825 C 0.0 **** -0.24
22977 H 16.896881852698243 130.9287321469625 42.85278183790402 H 0.0 **** 0.06
22978 H 15.749965264221686 130.95784402953905 41.49136706827494 H 0.0 **** 0.06
22979 H 17.14978104540944 132.05844390532292 41.501518876803516 H 0.0 **** 0.06
22980 H 15.805284727482473 132.31787281259392 42.63851517485662 H 0.0 **** 0.06
22981 C 127.51830683906265 65.15055214806824 124.44070843098056 C 0.0 **** -0.24
22982 H 128.30776193361316 65.59549507261573 123.83380658848229 H 0.0 **** 0.06
22983 H 126.9113581502914 65.94064433246113 124.88295948576403 H 0.0 **** 0.06
22984 H 127.96625199010317 64.54944249639983 125.23267479304904 H 0.0 **** 0.06
22985 H 126.89116173590482 64.51655269573872 123.81364217726106 H 0.0 **** 0.06
22986 C 29.947212660930305 154.26863353290832 7.470114253947997 C 0.0 **** -0.24
22987 H 30.83870905777674 153.65264872788146 7.5859211861885285 H 0.0 **** 0.06
22988 H 29.882865913913037 154.9739204788732 8.298597916790442 H 0.0 **** 0.06
22989 H 29.062492957111374 153.63016513218122 7.465579196034753 H 0.0 **** 0.06
22990 H 30.003956129296682 154.8168831848012 6.529143537648821 H 0.0 **** 0.06
22991 C 143.16265105946718 51.50093842124241 34.89704174359042 C 0.0 **** -0.24
22992 H 143.10776426010014 52.58566622810156 34.81212203582942 H 0.0 **** 0.06
22993 H 142.19648697251796 51.111996740466196 35.21967110906209 H 0.0 **** 0.06
22994 H 143.9258117139006 51.23194763992552 35.62693771144308 H 0.0 **** 0.06
22995 H 143.4212691203006 51.07384342787839 33.92711650081176 H 0.0 **** 0.06
22996 C 19.08580347566462 108.5422567061661 180.246430789128 C 0.0 **** -0.24
22997 H 19.888654737175045 109.22225849283673 180.52943389788703 H 0.0 **** 0.06
22998 H 18.255109207635343 109.11344292104191 179.83248309523344 H 0.0 **** 0.06
22999 H 18.747945811771416 107.99343907329636 181.12578383573975 H 0.0 **** 0.06
23000 H 19.452909194057156 107.83899828096914 179.49850943126967 H 0.0 **** 0.06
23001 C 21.981795622006928 93.33072188856703 36.436900365181316 C 0.0 **** -0.24
23002 H 22.449279772472153 94.19548735977408 36.90953833737353 H 0.0 **** 0.06
23003 H 22.551310849646086 93.0503258077285 35.55015979678922 H 0.0 **** 0.06
23004 H 20.9608895918239 93.5822072824461 36.150384528526786 H 0.0 **** 0.06
23005 H 21.968101233974778 92.49657464863641 37.13867185094219 H 0.0 **** 0.06
23006 C 71.96828104424233 6.9069106084766645 85.85426927854881 C 0.0 **** -0.24
23007 H 71.68656678882536 6.540267778496258 84.86723155128429 H 0.0 **** 0.06
23008 H 71.26197798705762 6.534636832248111 86.59559752123745 H 0.0 **** 0.06
23009 H 71.95496554694942 7.997082729029501 85.85336266434159 H 0.0 **** 0.06
23010 H 72.97103614450836 6.556683151816543 86.09845218808063 H 0.0 **** 0.06
23011 C 25.335795303058546 15.440564792302268 94.3903815373602 C 0.0 **** -0.24
23012 H 25.031289992487586 15.665351046442652 95.4127298280937 H 0.0 **** 0.06
23013 H 25.582233599165846 16.368101205451637 93.8726260380822 H 0.0 **** 0.06
23014 H 24.52034988220919 14.938727250580087 93.87009008484272 H 0.0 **** 0.06
23015 H 26.210897196696266 14.790751036639506 94.40750252337104 H 0.0 **** 0.06
23016 C 34.078405831479074 43.6029219761852 12.335795267460924 C 0.0 **** -0.24
23017 H 35.06481889114957 43.1399184278429 12.370957263155844 H 0.0 **** 0.06
23018 H 33.36037494711208 42.89565209497181 11.921222816915304 H 0.0 **** 0.06
23019 H 34.11742373371466 44.49214119847244 11.707108440911384 H 0.0 **** 0.06
23020 H 33.773429573905375 43.88362924876654 13.34382268192752 H 0.0 **** 0.06
23021 C 44.782839019461164 19.263289429802285 119.73729716954712 C 0.0 **** -0.24
23022 H 45.018134638405684 20.08757152957122 120.41100509542808 H 0.0 **** 0.06
23023 H 45.34981882964826 19.375936406208837 118.81295365751 H 0.0 **** 0.06
23024 H 43.71614545558677 19.26983897549931 119.51398505910036 H 0.0 **** 0.06
23025 H 45.04840899347977 18.318271599535905 120.21331954721545 H 0.0 **** 0.06
23026 C 43.283378252487125 121.27806514630119 96.09359369019573 C 0.0 **** -0.24
23027 H 44.34584026919619 121.423093428386 95.89918275273688 H 0.0 **** 0.06
23028 H 42.837238456184735 122.2251663152227 96.39921773122428 H 0.0 **** 0.06
23029 H 43.15709363574632 120.54262702991018 96.88845553266644 H 0.0 **** 0.06
23030 H 42.79334064882103 120.92137381168585 95.18751874415564 H 0.0 **** 0.06
23031 C 133.58673086684433 129.18820060271378 185.37069609883002 C 0.0 **** -0.24
23032 H 134.18728278297777 129.84151582214383 184.73776246646946 H 0.0 **** 0.06
23033 H 133.88086417300616 129.31898474041446 186.4115704641908 H 0.0 **** 0.06
23034 H 133.74613013639748 128.1506633455772 185.07580171988255 H 0.0 **** 0.06
23035 H 132.53244352725045 129.43943666430414 185.25562218890408 H 0.0 **** 0.06
23036 C 110.32472983157042 77.64359848072837 177.85590275892812 C 0.0 **** -0.24
23037 H 111.00843603861036 76.91470989494937 178.28902811192785 H 0.0 **** 0.06
23038 H 109.33162440831968 77.5091525407607 178.28329045573477 H 0.0 **** 0.06
23039 H 110.27796268975386 77.50093866762968 176.77525506857498 H 0.0 **** 0.06
23040 H 110.68234826441504 78.6503772538291 178.07316052382777 H 0.0 **** 0.06
23041 C 115.27617067131807 48.67852412951845 128.52652150449705 C 0.0 **** -0.24
23042 H 116.16723395523373 48.797765862587454 127.91058239727782 H 0.0 **** 0.06
23043 H 115.52688258919652 48.877015151300384 129.56885889088352 H 0.0 **** 0.06
23044 H 114.90313824789258 47.659164034763194 128.43038536978122 H 0.0 **** 0.06
23045 H 114.50904975492115 49.37863845824904 128.1965430579612 H 0.0 **** 0.06
23046 C 72.23070250269836 105.43386499444411 164.40579840538075 C 0.0 **** -0.24
23047 H 71.47026342782948 106.20019151667667 164.55430572848184 H 0.0 **** 0.06
23048 H 71.75002305148928 104.46225696118314 164.2915466712131 H 0.0 **** 0.06
23049 H 72.89516335115474 105.41142553267734 165.26964944480346 H 0.0 **** 0.06
23050 H 72.80753183662864 105.66283722575146 163.50979059443867 H 0.0 **** 0.06
23051 C 66.71715348593891 120.72838461514351 143.3539974253098 C 0.0 **** -0.24
23052 H 65.84039407807278 120.13382980750168 143.6104830619763 H 0.0 **** 0.06
23053 H 67.47822348242327 120.08196507680304 142.91474732379035 H 0.0 **** 0.06
23054 H 67.11366235488376 121.19618050938442 144.25468108851686 H 0.0 **** 0.06
23055 H 66.43585260811898 121.49903769213228 142.63725759738713 H 0.0 **** 0.06
23056 C 72.19088844601117 177.85632435882312 115.79674189239431 C 0.0 **** -0.24
23057 H 72.1534635831232 178.8085991683572 115.26857959983464 H 0.0 **** 0.06
23058 H 73.11919150790061 177.3397533355519 115.55002910397094 H 0.0 **** 0.06
23059 H 71.34191981362818 177.24127346748236 115.49733741721617 H 0.0 **** 0.06
23060 H 72.14902045165866 178.03467236005812 116.87101206918773 H 0.0 **** 0.06
23061 C 16.0028536151189 114.41532309341585 5.550189373540093 C 0.0 **** -0.24
23062 H 15.629073210236378 115.2463441737824 6.147670349051737 H 0.0 **** 0.06
23063 H 15.307788305585781 113.57775542653746 5.618380365257963 H 0.0 **** 0.06
23064 H 16.979756952597064 114.10863292826963 5.924433122760433 H 0.0 **** 0.06
23065 H 16.093565758454076 114.72807384388392 4.509773279675301 H 0.0 **** 0.06
23066 C 104.13992103949973 54.58912097651179 35.269878605028836 C 0.0 **** -0.24
23067 H 103.84594638533734 54.27930796670101 34.26758616390583 H 0.0 **** 0.06
23068 H 104.1791982664998 53.71781555475569 35.92309718068685 H 0.0 **** 0.06
23069 H 103.41195083486748 55.30163973409343 35.65806769520481 H 0.0 **** 0.06
23070 H 105.12205869623564 55.059644107153105 35.23062359551973 H 0.0 **** 0.06
23071 C 183.38427620902382 116.84657671769692 114.62957558493788 C 0.0 **** -0.24
23072 H 182.57344895802328 116.34512707837872 114.10067691369424 H 0.0 **** 0.06
23073 H 183.8767354453703 116.13745395924833 115.29553068561982 H 0.0 **** 0.06
23074 H 182.98094269153893 117.67460471686634 115.21262538836483 H 0.0 **** 0.06
23075 H 184.1067431199005 117.22845670794406 113.90723935090152 H 0.0 **** 0.06
23076 C 113.24508279656344 93.30193462938693 2.428842703268174 C 0.0 **** -0.24
23077 H 114.23032745336307 93.71987632499382 2.635129068421925 H 0.0 **** 0.06
23078 H 112.47743586442668 93.9918179715559 2.7813005847948844 H 0.0 **** 0.06
23079 H 113.13997949253006 92.3473797451639 2.9426331126362157 H 0.0 **** 0.06
23080 H 113.13262720854816 93.15120770754116 1.35471723392223 H 0.0 **** 0.06
23081 C 29.15417195206578 150.2046936245768 68.81762643959448 C 0.0 **** -0.24
23082 H 29.381299357915992 149.2570678262323 68.32872270309886 H 0.0 **** 0.06
23083 H 28.10965678225594 150.4622853603252 68.64318758690162 H 0.0 **** 0.06
23084 H 29.795032407078992 150.98664854037472 68.40833951228386 H 0.0 **** 0.06
23085 H 29.333119604212385 150.11277206318942 69.88848334199956 H 0.0 **** 0.06
23086 C 130.16857476331808 90.14892152675174 16.890700661364548 C 0.0 **** -0.24
23087 H 129.3513880094585 89.43288659014434 16.79993636319182 H 0.0 **** 0.06
23088 H 130.7255619385059 90.18486152564162 15.95446192815038 H 0.0 **** 0.06
23089 H 130.83257106162546 89.84045715815517 17.697483149788212 H 0.0 **** 0.06
23090 H 129.7639390638871 91.13643943679222 17.11046114331674 H 0.0 **** 0.06
23091 C 100.25711994535878 20.54817559832864 61.546908543702116 C 0.0 **** -0.24
23092 H 100.05428666713716 19.64755181785395 62.12661263712555 H 0.0 **** 0.06
23093 H 100.85122881123662 21.238607251943023 62.14636344006195 H 0.0 **** 0.06
23094 H 99.31513514859374 21.02268617893219 61.27090541165299 H 0.0 **** 0.06
23095 H 100.80858461500277 20.282881634446312 60.64496830658888 H 0.0 **** 0.06
23096 C 68.08971638254945 75.9972898635533 111.49729217513051 C 0.0 **** -0.24
23097 H 67.24764824466388 75.63139648836108 112.08367653736546 H 0.0 **** 0.06
23098 H 68.76632830885482 75.17120642037031 111.27796179699662 H 0.0 **** 0.06
23099 H 68.62142485220183 76.76221140461746 112.06393538063348 H 0.0 **** 0.06
23100 H 67.7231082039235 76.42527878085826 110.56363574869722 H 0.0 **** 0.06
23101 C 119.6784945305343 7.0943523651563964 158.49657261383473 C 0.0 **** -0.24
23102 H 120.56563749786108 6.5123640399066005 158.2473893455768 H 0.0 **** 0.06
23103 H 118.79113569519927 6.471825711756765 158.37782814155872 H 0.0 **** 0.06
23104 H 119.61038765834041 7.954787373346278 157.83159262074645 H 0.0 **** 0.06
23105 H 119.74712161259708 7.437261000299088 159.5287486377892 H 0.0 **** 0.06
23106 C 57.838634350811006 20.714928889044245 88.12000318063359 C 0.0 **** -0.24
23107 H 58.68639665611603 20.376074715106654 88.71697916863504 H 0.0 **** 0.06
23108 H 57.0093980849029 20.017240766816855 88.23973153276576 H 0.0 **** 0.06
23109 H 58.12892184096971 20.757572495059605 87.0705780802766 H 0.0 **** 0.06
23110 H 57.53297956988146 21.706182098616182 88.4528793750434 H 0.0 **** 0.06
23111 C 126.71396886486109 128.9451203049727 27.805878272966538 C 0.0 **** -0.24
23112 H 126.79905373281362 127.86144488961499 27.885700069419556 H 0.0 **** 0.06
23113 H 126.57039206197307 129.2223146219755 26.76101445292204 H 0.0 **** 0.06
23114 H 127.62426410466118 129.41036109627936 28.18419421021423 H 0.0 **** 0.06
23115 H 125.86099429049507 129.28672336517343 28.39189966977881 H 0.0 **** 0.06
23116 C 88.70462385410197 8.856806329791112 170.1061530303146 C 0.0 **** -0.24
23117 H 89.00085616964775 9.400521823277685 171.00341734450583 H 0.0 **** 0.06
23118 H 87.81746037434054 9.320032630793172 169.6764116274899 H 0.0 **** 0.06
23119 H 88.48498328164855 7.820453476819523 170.36458516817225 H 0.0 **** 0.06
23120 H 89.51764270493375 8.884861532332224 169.37978146619486 H 0.0 **** 0.06
23121 C 54.045045688522805 138.50081737534327 2.3760745331852604 C 0.0 **** -0.24
23122 H 54.61328634712967 137.59591600271096 2.160279658107811 H 0.0 **** 0.06
23123 H 53.874072355733645 139.05082898179148 1.4502161549039556 H 0.0 **** 0.06
23124 H 54.60573267569558 139.1244975087206 3.072161130860536 H 0.0 **** 0.06
23125 H 53.08700380749403 138.23030916791419 2.8202123850552425 H 0.0 **** 0.06
23126 C 66.57835969357878 45.51185293010667 104.29319768254065 C 0.0 **** -0.24
23127 H 67.58603797389343 45.59016222950606 104.70095434170979 H 0.0 **** 0.06
23128 H 65.860534148215 45.88143206287947 105.02601698745052 H 0.0 **** 0.06
23129 H 66.35874310553554 44.46948983334562 104.06281954734676 H 0.0 **** 0.06
23130 H 66.50824370879549 46.10864887545165 103.38377274757171 H 0.0 **** 0.06
23131 C 51.2506657132368 154.97234024656467 91.32393491281384 C 0.0 **** -0.24
23132 H 52.28585970929953 155.08013870382985 90.99927777077617 H 0.0 **** 0.06
23133 H 50.60521782675971 155.57657891809663 90.68576014172903 H 0.0 **** 0.06
23134 H 51.15760912791902 155.3078283306769 92.35671445086929 H 0.0 **** 0.06
23135 H 50.95503714942012 153.92532213249052 91.25320162693482 H 0.0 **** 0.06
23136 C 94.34862180757068 127.14597980771231 181.13176470942307 C 0.0 **** -0.24
23137 H 94.90622502510331 127.79461604461619 181.80631419740476 H 0.0 **** 0.06
23138 H 93.63092674180541 126.55853201702547 181.70381648353643 H 0.0 **** 0.06
23139 H 95.03865772556935 126.4765179163677 180.61810959865363 H 0.0 **** 0.06
23140 H 93.8181884070708 127.75349824285996 180.39838204913127 H 0.0 **** 0.06
23141 C 153.47691041743633 113.29633698478683 135.85713823483508 C 0.0 **** -0.24
23142 H 153.54289137059874 113.99343017495299 136.69335710400736 H 0.0 **** 0.06
23143 H 153.55684425653405 112.27486793792805 136.22884501073327 H 0.0 **** 0.06
23144 H 154.28799982648653 113.49422915926898 135.15610825678135 H 0.0 **** 0.06
23145 H 152.52003055276697 113.42537420144511 135.35235545070412 H 0.0 **** 0.06
23146 C 39.12976367849183 104.19049717644113 10.416714064964964 C 0.0 **** -0.24
23147 H 39.44658747591177 103.8023497340074 9.448587723755992 H 0.0 **** 0.06
23148 H 39.89099242171159 104.86919850800363 10.802152361226462 H 0.0 **** 0.06
23149 H 38.993791188032674 103.36229492615534 11.112701776845768 H 0.0 **** 0.06
23150 H 38.18851831384612 104.72709561554687 10.302966053103376 H 0.0 **** 0.06
23151 C 17.58233668605976 122.95978215482585 155.41853062652677 C 0.0 **** -0.24
23152 H 17.3653980115173 122.85719184265342 154.35488067319238 H 0.0 **** 0.06
23153 H 18.192066181151972 122.11767849287416 155.74723984411636 H 0.0 **** 0.06
23154 H 16.648992579275728 122.97530572589973 155.9799236453201 H 0.0 **** 0.06
23155 H 18.124972174035406 123.88989104146994 155.58850285339688 H 0.0 **** 0.06
23156 C 64.00788716035329 54.49630603366785 76.11994016789406 C 0.0 **** -0.24
23157 H 64.9299140862815 54.56440750418953 75.5433121419817 H 0.0 **** 0.06
23158 H 64.24347040156637 54.230304717807215 77.1511609194561 H 0.0 **** 0.06
23159 H 63.363010457866025 53.73266697029723 75.6851887669051 H 0.0 **** 0.06
23160 H 63.495715768509626 55.45765687144677 76.10090427988274 H 0.0 **** 0.06
23161 C 87.54906783134994 34.75612600032966 177.03646106827446 C 0.0 **** -0.24
23162 H 87.30265702720634 34.98772691093578 178.0729942868693 H 0.0 **** 0.06
23163 H 87.23144445325325 35.57892369820695 176.3948141731019 H 0.0 **** 0.06
23164 H 87.03640393272555 33.84264564515671 176.73641488663054 H 0.0 **** 0.06
23165 H 88.62668785639956 34.61595125547015 176.94288476519193 H 0.0 **** 0.06
23166 C 14.357306007539158 112.04525902572648 22.884533920205854 C 0.0 **** -0.24
23167 H 14.629861549997202 111.14632384415388 23.437583992192003 H 0.0 **** 0.06
23168 H 13.271741227767798 112.11563954277123 22.81845028539385 H 0.0 **** 0.06
23169 H 14.780820425018902 111.99742478646864 21.88125789150564 H 0.0 **** 0.06
23170 H 14.747353167991214 112.92157243181423 23.403009000940983 H 0.0 **** 0.06
23171 C 153.92611864506185 126.2851399802344 122.95444652053192 C 0.0 **** -0.24
23172 H 153.39421162006704 125.40771728367444 122.58611148208337 H 0.0 **** 0.06
23173 H 154.59790928389094 126.65483731687534 122.1797029612411 H 0.0 **** 0.06
23174 H 154.5047133119372 126.01483355841275 123.83821856834248 H 0.0 **** 0.06
23175 H 153.20847707392815 127.06262413642905 123.2137461377589 H 0.0 **** 0.06
23176 C 163.84341188125236 66.58365624582939 87.64709806252638 C 0.0 **** -0.24
23177 H 163.91894155990468 67.11574732252024 88.5945333776652 H 0.0 **** 0.06
23178 H 164.84283770393864 66.40753016688927 87.24896115204247 H 0.0 **** 0.06
23179 H 163.26988211019616 67.18261575263989 86.93840453253868 H 0.0 **** 0.06
23180 H 163.34144652144772 65.62919429891005 87.80527053098307 H 0.0 **** 0.06
23181 C 158.88503794311606 30.87249776468377 95.91972619779438 C 0.0 **** -0.24
23182 H 158.90272508008718 30.94340319681703 94.83254547301243 H 0.0 **** 0.06
23183 H 158.6536322299537 31.849248794482833 96.34465817625187 H 0.0 **** 0.06
23184 H 159.86066684885236 30.542243829335433 96.2771838237644 H 0.0 **** 0.06
23185 H 158.12423949320157 30.154246034130608 96.22472377815768 H 0.0 **** 0.06
23186 C 36.36005585371049 151.01484903747317 40.34408208575178 C 0.0 **** -0.24
23187 H 36.55523826101785 150.05506755626556 40.82012162693357 H 0.0 **** 0.06
23188 H 37.22117796736143 151.67010103531436 40.47977260677345 H 0.0 **** 0.06
23189 H 35.480377693419825 151.4725352533188 40.7967055796629 H 0.0 **** 0.06
23190 H 36.182951943917885 150.86256084210873 39.278719748420144 H 0.0 **** 0.06
23191 C 48.72825444501757 162.35327334747592 23.796560086753757 C 0.0 **** -0.24
23192 H 47.88544314322752 162.85563382371788 23.320874848132988 H 0.0 **** 0.06
23193 H 48.39835132356092 161.89493917880588 24.729107187218503 H 0.0 **** 0.06
23194 H 49.51291238559952 163.080308681633 24.00516232671012 H 0.0 **** 0.06
23195 H 49.11515752747849 161.58253347013707 23.129207530765157 H 0.0 **** 0.06
23196 C 48.64591464775302 147.09047709827843 30.753433088656436 C 0.0 **** -0.24
23197 H 48.56059930298869 146.7253363871216 31.77640713086086 H 0.0 **** 0.06
23198 H 49.497704280323376 147.76698086086378 30.67940972330456 H 0.0 **** 0.06
23199 H 47.73425723827691 147.62218285470354 30.479606250884046 H 0.0 **** 0.06
23200 H 48.79109776942312 146.2474082904248 30.078309249576307 H 0.0 **** 0.06
23201 C 169.39652101869913 29.689502516931014 52.028848939495305 C 0.0 **** -0.24
23202 H 169.03767235237686 30.335905549443495 52.82963300001667 H 0.0 **** 0.06
23203 H 170.42864151920418 29.40109635426049 52.22977563955166 H 0.0 **** 0.06
23204 H 169.34668507721216 30.223906114686088 51.08050906371652 H 0.0 **** 0.06
23205 H 168.77308512600337 28.797102049334185 51.97547805469634 H 0.0 **** 0.06
23206 C 132.83825129391067 40.496207246762125 88.23246571310447 C 0.0 **** -0.24
23207 H 133.1277937684386 41.26178760627997 88.95241448631391 H 0.0 **** 0.06
23208 H 132.88821050283593 40.907223396001186 87.22413979012661 H 0.0 **** 0.06
23209 H 131.82002188984058 40.16787359396926 88.44140651816333 H 0.0 **** 0.06
23210 H 133.51705873490278 39.64698917662008 88.31218707579755 H 0.0 **** 0.06
23211 C 68.04115643787532 0.7647121815575346 107.83790572864478 C 0.0 **** -0.24
23212 H 67.508321920272 1.551862234815978 108.37244904981458 H 0.0 **** 0.06
23213 H 69.11438512327048 0.8922717546330574 107.98167333158148 H 0.0 **** 0.06
23214 H 67.80708545607064 0.8250514589076445 106.7754344161491 H 0.0 **** 0.06
23215 H 67.73538279222835 -0.20759632166414121 108.22354546076372 H 0.0 **** 0.06
23216 C 85.74812593472677 41.19725217830995 183.21860649149772 C 0.0 **** -0.24
23217 H 85.43773005480062 41.63188794865641 182.26896156690367 H 0.0 **** 0.06
23218 H 86.52313585243951 40.45117282841693 183.04139303658766 H 0.0 **** 0.06
23219 H 84.8902935041458 40.72419125715629 183.69837340582302 H 0.0 **** 0.06
23220 H 86.14027112913226 41.98109200924503 183.8668839303128 H 0.0 **** 0.06
23221 C 158.1164498550573 126.04447705848004 76.98260747035967 C 0.0 **** -0.24
23222 H 159.08217261783014 126.17983240585345 77.47077738650317 H 0.0 **** 0.06
23223 H 157.4633951644251 126.88047323638453 77.2327200858999 H 0.0 **** 0.06
23224 H 157.6643161919139 125.11441886973189 77.32637376774169 H 0.0 **** 0.06
23225 H 158.2578005361737 126.00329982459898 75.9028895591119 H 0.0 **** 0.06
23226 C 98.95333453503777 96.98783005555886 48.52736836657425 C 0.0 **** -0.24
23227 H 97.99863973148398 97.15343614109447 49.02612563014719 H 0.0 **** 0.06
23228 H 98.7761137460058 96.71608695769017 47.48626228653194 H 0.0 **** 0.06
23229 H 99.48858000369567 96.18120576362288 49.02726723299713 H 0.0 **** 0.06
23230 H 99.54782026946732 97.89972085250734 48.569132162255016 H 0.0 **** 0.06
23231 C 76.49328921490007 3.1203663555218384 26.144670898056233 C 0.0 **** -0.24
23232 H 76.28323044834451 2.2439317273902475 26.757021287136098 H 0.0 **** 0.06
23233 H 76.85104377129306 3.9304831951281756 26.780947388333004 H 0.0 **** 0.06
23234 H 75.5823161752046 3.43413073419012 25.633967046043097 H 0.0 **** 0.06
23235 H 77.25656646475784 2.8729197653787537 25.406747870712536 H 0.0 **** 0.06
23236 C 37.865399396362236 36.308018983110614 132.51180271662201 C 0.0 **** -0.24
23237 H 37.60335902170617 37.3373650561976 132.75836283006532 H 0.0 **** 0.06
23238 H 37.21206363453567 35.947931673275065 131.71687826575942 H 0.0 **** 0.06
23239 H 37.74407786512094 35.68165500971132 133.39553605901557 H 0.0 **** 0.06
23240 H 38.901488237865095 36.26782705453341 132.17700298248093 H 0.0 **** 0.06
23241 C 105.29473058530463 50.44833016234607 25.4350892057422 C 0.0 **** -0.24
23242 H 105.9640577768639 49.81629561541156 26.01811217917958 H 0.0 **** 0.06
23243 H 105.79054217900399 50.7459199732117 24.50984621625014 H 0.0 **** 0.06
23244 H 105.03841300794933 51.336331956710765 26.01249414562841 H 0.0 **** 0.06
23245 H 104.38634559864558 49.893542926171676 25.19783147663705 H 0.0 **** 0.06
23246 C 177.55252582135967 46.14545478132459 8.092203156394113 C 0.0 **** -0.24
23247 H 177.29511855356395 45.35082023848179 8.793422692194937 H 0.0 **** 0.06
23248 H 177.75517158575934 47.063676287561975 8.643290552111203 H 0.0 **** 0.06
23249 H 176.72040107570905 46.30790415918068 7.407419276735638 H 0.0 **** 0.06
23250 H 178.43852233290608 45.85749582831443 7.525909770950456 H 0.0 **** 0.06
23251 C 116.96245752243856 32.869820124030696 139.96797539056195 C 0.0 **** -0.24
23252 H 116.73027637568377 32.16886772629505 139.16579272422376 H 0.0 **** 0.06
23253 H 117.4521221887474 32.33885026882518 140.78412052656688 H 0.0 **** 0.06
23254 H 116.04092199101494 33.3251027590278 140.3299758550366 H 0.0 **** 0.06
23255 H 117.62769861533734 33.64690882327045 139.5892949879791 H 0.0 **** 0.06
23256 C 4.214843484556695 132.1311382943677 77.48365580173692 C 0.0 **** -0.24
23257 H 4.500724795351971 131.4055831064527 76.72161057495359 H 0.0 **** 0.06
23258 H 4.544737676565489 131.77896413858224 78.46171080150529 H 0.0 **** 0.06
23259 H 3.13119695308626 132.24731848910284 77.48558264549966 H 0.0 **** 0.06
23260 H 4.683327731638826 133.0905423143863 77.2655691564879 H 0.0 **** 0.06
23261 C 64.64620363675695 154.779370480385 51.892205803607254 C 0.0 **** -0.24
23262 H 64.1136466239493 155.1582323874851 52.76530950897374 H 0.0 **** 0.06
23263 H 65.64828196032373 154.4667110942482 52.18518105213974 H 0.0 **** 0.06
23264 H 64.71540613352818 155.56515145970462 51.140752144975735 H 0.0 **** 0.06
23265 H 64.10572989218808 153.92779951593582 51.47891004138667 H 0.0 **** 0.06
23266 C 179.58571194413153 170.72490217344358 14.64184191802827 C 0.0 **** -0.24
23267 H 178.7257352530175 170.06495912535107 14.759675057142296 H 0.0 **** 0.06
23268 H 179.26797578411183 171.76120090456126 14.763052774965104 H 0.0 **** 0.06
23269 H 180.01445354434716 170.5883707549566 13.64861576231278 H 0.0 **** 0.06
23270 H 180.33377058380216 170.48334826624995 15.397108328848809 H 0.0 **** 0.06
23271 C 69.7836890473781 111.04117161830136 15.74205120088196 C 0.0 **** -0.24
23272 H 70.72228711359834 111.37294222893307 16.18562339075236 H 0.0 **** 0.06
23273 H 69.0541979654777 111.85066598996717 15.787328360178577 H 0.0 **** 0.06
23274 H 69.40537699036474 110.18021291157153 16.294121379374097 H 0.0 **** 0.06
23275 H 69.95201330076775 110.76011137390857 14.702761331844883 H 0.0 **** 0.06
23276 C 103.5764689547226 128.8893376773645 6.705016191854405 C 0.0 **** -0.24
23277 H 103.4930611695346 127.80832485193996 6.590719261020475 H 0.0 **** 0.06
23278 H 102.90357870628992 129.22396573885595 7.494703562721554 H 0.0 **** 0.06
23279 H 103.30737048301563 129.37469952439187 5.766550812547514 H 0.0 **** 0.06
23280 H 104.60208969824072 129.1482415885174 6.96688295889534 H 0.0 **** 0.06
23281 C 39.211922986472985 161.29584056624392 83.67362347035379 C 0.0 **** -0.24
23282 H 40.214788210585084 161.7134170768894 83.76037917167673 H 0.0 **** 0.06
23283 H 38.57376356609177 161.72236310221882 84.44826240023792 H 0.0 **** 0.06
23284 H 39.257309397808115 160.21372030811165 83.79455805239894 H 0.0 **** 0.06
23285 H 38.80168607935303 161.53493834718478 82.69219985740222 H 0.0 **** 0.06
23286 C 4.966182301609763 88.83380164396284 37.84101992604586 C 0.0 **** -0.24
23287 H 5.9605295484278145 88.42138718258228 38.011941621979915 H 0.0 **** 0.06
23288 H 4.458359443266829 88.25095118130709 37.07248388296442 H 0.0 **** 0.06
23289 H 5.053922381927862 89.86962290684339 37.51402093628154 H 0.0 **** 0.06
23290 H 4.392169121505049 88.79135603162082 38.76717197928474 H 0.0 **** 0.06
23291 C 26.998346750973667 117.76046045491096 162.73658284198774 C 0.0 **** -0.24
23292 H 27.561939153465175 118.69062532878645 162.66853683588872 H 0.0 **** 0.06
23293 H 26.562307555556487 117.52921965430984 161.76408353276204 H 0.0 **** 0.06
23294 H 26.20454817523489 117.86975265242747 163.47444689481335 H 0.0 **** 0.06
23295 H 27.6656634192517 116.9531067086797 163.03750101285638 H 0.0 **** 0.06
23296 C 170.89998565708916 148.7522254068985 22.940526381785617 C 0.0 **** -0.24
23297 H 169.84577506080075 148.8683326841733 22.688638536378562 H 0.0 **** 0.06
23298 H 171.07934278027628 147.7353640282326 23.289025033762925 H 0.0 **** 0.06
23299 H 171.16515700128124 149.45839603597807 23.72732849336728 H 0.0 **** 0.06
23300 H 171.50722555252037 148.9469355215242 22.057253483821114 H 0.0 **** 0.06
23301 C 16.67488516548022 153.32560519352407 159.96919809457364 C 0.0 **** -0.24
23302 H 16.696993875770602 154.38553770957478 160.22357703084884 H 0.0 **** 0.06
23303 H 15.64098666324773 152.98153209905834 159.93956772762328 H 0.0 **** 0.06
23304 H 17.2257714625444 152.7605596454629 160.72080116042997 H 0.0 **** 0.06
23305 H 17.136260620996126 153.17805058958035 158.99323976185207 H 0.0 **** 0.06
23306 C 66.21093996269083 94.56278259705714 156.33420880804712 C 0.0 **** -0.24
23307 H 66.21503303631225 93.5153515266867 156.03173603976268 H 0.0 **** 0.06
23308 H 65.18351576106554 94.9259996355077 156.36953971175328 H 0.0 **** 0.06
23309 H 66.78094940224882 95.15038672830265 155.61500371160383 H 0.0 **** 0.06
23310 H 66.66455717664113 94.6572355809701 157.3210661594446 H 0.0 **** 0.06
23311 C 8.706902956444132 20.037667224255813 141.58507794480272 C 0.0 **** -0.24
23312 H 9.457183232900185 19.37436017653473 142.01413924922377 H 0.0 **** 0.06
23313 H 9.144429400565691 20.590886200172825 140.7536089096729 H 0.0 **** 0.06
23314 H 8.3627234224139 20.737141605531754 142.34619907511257 H 0.0 **** 0.06
23315 H 7.862940417525046 19.447828418283066 141.22553822176712 H 0.0 **** 0.06
23316 C 62.409108306260194 14.89638407896274 36.85233782919275 C 0.0 **** -0.24
23317 H 63.01852988035907 14.14698897854533 36.3469224555852 H 0.0 **** 0.06
23318 H 61.370735387745384 14.795931397714973 36.533168038229974 H 0.0 **** 0.06
23319 H 62.772520523873695 15.892432026710765 36.59758219475657 H 0.0 **** 0.06
23320 H 62.47353207395183 14.751209368322478 37.93003408000456 H 0.0 **** 0.06
23321 C 23.838428238185827 99.23933354226706 125.18379025626855 C 0.0 **** -0.24
23322 H 23.090289549064124 99.7155773157324 124.54979676866346 H 0.0 **** 0.06
23323 H 23.59313655567172 98.18421197285674 125.30449164569008 H 0.0 **** 0.06
23324 H 23.84860506435581 99.72509819256736 126.15987043600934 H 0.0 **** 0.06
23325 H 24.819416808527876 99.33452246062511 124.72025297348203 H 0.0 **** 0.06
23326 C 27.395342116756012 120.86261702699944 39.28869935144951 C 0.0 **** -0.24
23327 H 28.050826092915997 121.66605181406418 38.95373868965976 H 0.0 **** 0.06
23328 H 26.620347371854194 121.27287512985497 39.935332765345436 H 0.0 **** 0.06
23329 H 27.97783525845466 120.12600501381884 39.8408984219235 H 0.0 **** 0.06
23330 H 26.933856145063658 120.38650965323349 38.42348097816773 H 0.0 **** 0.06
23331 C 147.33298030357088 85.60195654803807 123.6261620932439 C 0.0 **** -0.24
23332 H 146.98086054396373 84.62262461989548 123.30135134144673 H 0.0 **** 0.06
23333 H 147.76687294197603 86.13188891767432 122.77856064753324 H 0.0 **** 0.06
23334 H 148.08704693426657 85.47687860109919 124.4023581723719 H 0.0 **** 0.06
23335 H 146.49368538118023 86.17505141519756 124.02199249269701 H 0.0 **** 0.06
23336 C 23.492819985070923 115.97678428862616 2.205553606529975 C 0.0 **** -0.24
23337 H 24.521308957668282 115.69291574169114 1.9858892990441461 H 0.0 **** 0.06
23338 H 23.07157868775022 116.50757299401869 1.3522813979523107 H 0.0 **** 0.06
23339 H 23.475566547846597 116.62479861718214 3.0826141207247417 H 0.0 **** 0.06
23340 H 22.903578444233005 115.0810374513303 2.404860913575675 H 0.0 **** 0.06
23341 C 114.14088290617069 105.39686563727965 6.513170648005932 C 0.0 **** -0.24
23342 H 113.27609377767713 105.1080830119593 7.110136065717612 H 0.0 **** 0.06
23343 H 114.43586402409012 106.41444952799766 6.771588057479178 H 0.0 **** 0.06
23344 H 113.88307259027614 105.35084782356803 5.455120288201186 H 0.0 **** 0.06
23345 H 114.96574509414866 104.71515363468929 6.716344065880534 H 0.0 **** 0.06
23346 C 148.9736499378755 14.561087872084158 64.9747630958079 C 0.0 **** -0.24
23347 H 150.03378679926013 14.712265504182824 64.77047523222029 H 0.0 **** 0.06
23348 H 148.80923477908908 13.533635250570399 65.29962019104508 H 0.0 **** 0.06
23349 H 148.39875749903496 14.75361093887443 64.06973277600507 H 0.0 **** 0.06
23350 H 148.6544540149716 15.246613483775718 65.7610092461968 H 0.0 **** 0.06
23351 C 76.08861370927801 155.07872421026042 176.90405185574872 C 0.0 **** -0.24
23352 H 75.32583746760041 155.1712574474086 177.67786668825272 H 0.0 **** 0.06
23353 H 75.9209103724093 154.1644801666406 176.3363734817122 H 0.0 **** 0.06
23354 H 77.07440140409466 155.0423815756131 177.36940681190362 H 0.0 **** 0.06
23355 H 76.03417965674561 155.93844416795224 176.23579449138953 H 0.0 **** 0.06
23356 C 106.58085474141019 169.35196271729006 64.09118315930037 C 0.0 **** -0.24
23357 H 107.66907326444543 169.3039558349298 64.10712417169111 H 0.0 **** 0.06
23358 H 106.18061453480497 168.81762295580182 64.95336364119751 H 0.0 **** 0.06
23359 H 106.21069940706145 168.89207487694176 63.17413594120691 H 0.0 **** 0.06
23360 H 106.26268866751796 170.39383907859713 64.1292405164092 H 0.0 **** 0.06
23361 C 151.98136480801588 141.8996635932043 162.01286363246336 C 0.0 **** -0.24
23362 H 152.4083094018855 142.85537030457465 161.70706731923568 H 0.0 **** 0.06
23363 H 152.66047325067734 141.09332581615917 161.73415859312533 H 0.0 **** 0.06
23364 H 151.0215809612551 141.7551475190554 161.51687428341188 H 0.0 **** 0.06
23365 H 151.8369412036821 141.89630629765747 163.0927566308716 H 0.0 **** 0.06
23366 C 129.90967249546725 129.40197372347944 10.325365374642047 C 0.0 **** -0.24
23367 H 130.7516663862172 130.06865018435417 10.135091400910824 H 0.0 **** 0.06
23368 H 128.9781801987645 129.91972472210165 10.096229232963822 H 0.0 **** 0.06
23369 H 129.91218273831385 129.10335206493318 11.373492827916749 H 0.0 **** 0.06
23370 H 129.99882794914026 128.51665510283158 9.695615730988123 H 0.0 **** 0.06
23371 C 79.29970661287933 33.44487591703705 11.171691026163217 C 0.0 **** -0.24
23372 H 79.50877445678901 33.49561958217765 10.103119979875828 H 0.0 **** 0.06
23373 H 79.62312781530738 34.370105583259374 11.64892489045991 H 0.0 **** 0.06
23374 H 79.83797668896557 32.603342289585854 11.607322558604096 H 0.0 **** 0.06
23375 H 78.2294375049936 33.31090594828595 11.326155996841749 H 0.0 **** 0.06
23376 C 149.58467557936729 126.11660788170722 91.56665651855968 C 0.0 **** -0.24
23377 H 150.0645000093214 126.75415508822759 90.82393823772071 H 0.0 **** 0.06
23378 H 150.31351393288642 125.41225328422199 91.96649848262717 H 0.0 **** 0.06
23379 H 148.7674613634235 125.56750956324676 91.09880255796935 H 0.0 **** 0.06
23380 H 149.19117166289618 126.73296362285909 92.37524828367992 H 0.0 **** 0.06
23381 C 150.38225371990296 0.11842383915836763 26.64565955801413 C 0.0 **** -0.24
23382 H 151.09102325270058 -0.45400156982540096 27.24336370164872 H 0.0 **** 0.06
23383 H 150.8258706972269 1.0782501726927762 26.377456655533365 H 0.0 **** 0.06
23384 H 149.4738317658626 0.28739057485184105 27.223957198936148 H 0.0 **** 0.06
23385 H 150.13947565419744 -0.436012443767801 25.73982593538156 H 0.0 **** 0.06
23386 C 82.71092965956097 126.10509038705756 61.7817146844192 C 0.0 **** -0.24
23387 H 83.10437239461828 126.36234950231268 62.76532585463548 H 0.0 **** 0.06
23388 H 82.80071191271043 126.96547632430268 61.11885003786543 H 0.0 **** 0.06
23389 H 81.66231350750394 125.8223038648829 61.87208781417824 H 0.0 **** 0.06
23390 H 83.2793819350025 125.26934461444425 61.371513000939586 H 0.0 **** 0.06
23391 C 91.55724631764859 10.514556128193817 92.80197440843871 C 0.0 **** -0.24
23392 H 91.39766929833799 11.283741929045277 92.04784067644617 H 0.0 **** 0.06
23393 H 90.61419243720253 10.00853813183344 93.01014391847364 H 0.0 **** 0.06
23394 H 91.93225789488885 10.974176033738033 93.7166870597565 H 0.0 **** 0.06
23395 H 92.28531761978839 9.79046224613473 92.43426986758267 H 0.0 **** 0.06
23396 C 91.39780151170494 63.99895095282241 128.99337326334893 C 0.0 **** -0.24
23397 H 92.07606383162808 64.33725660984057 128.2104876691002 H 0.0 **** 0.06
23398 H 90.60513141230267 64.73503652171023 129.12917651838933 H 0.0 **** 0.06
23399 H 91.94862638956964 63.88141062270117 129.92573936585285 H 0.0 **** 0.06
23400 H 90.96039888896497 63.04285714582507 128.70623055360716 H 0.0 **** 0.06
23401 C 99.16078145209663 6.231640235918732 17.467100690923246 C 0.0 **** -0.24
23402 H 99.96637882754776 6.172826367062655 16.734436245951315 H 0.0 **** 0.06
23403 H 99.18664617965759 5.347922543992922 18.105683851131346 H 0.0 **** 0.06
23404 H 98.2025041777655 6.279881838993745 16.950548892649863 H 0.0 **** 0.06
23405 H 99.29065912891907 7.125975105444994 18.076946824076003 H 0.0 **** 0.06
23406 C 109.85700211593742 143.2844824723084 0.9335911425464403 C 0.0 **** -0.24
23407 H 109.56586355254002 144.2886467542338 1.2419347772141194 H 0.0 **** 0.06
23408 H 109.03800442355886 142.59255028345763 1.1296191647347342 H 0.0 **** 0.06
23409 H 110.73860445872394 142.97461794812835 1.4941396534160134 H 0.0 **** 0.06
23410 H 110.08621879973806 143.28424239894161 -0.1323328852726533 H 0.0 **** 0.06
23411 C 54.25395719660675 133.2573126091208 89.56419067962649 C 0.0 **** -0.24
23412 H 54.77723473193289 133.37714242391047 90.51254967621976 H 0.0 **** 0.06
23413 H 53.33090529292497 133.83676256332524 89.58369192364877 H 0.0 **** 0.06
23414 H 54.01920621998417 132.20455643861493 89.40827154007788 H 0.0 **** 0.06
23415 H 54.88902621886166 133.6116281042781 88.7522305631119 H 0.0 **** 0.06
23416 C 37.874432882333 148.53957978258057 44.05747901333859 C 0.0 **** -0.24
23417 H 38.639343483146476 147.93308094318968 43.57311625690305 H 0.0 **** 0.06
23418 H 38.12850327893034 148.6754017359458 45.10858604258951 H 0.0 **** 0.06
23419 H 36.90980885814437 148.03841902039636 43.97837312789349 H 0.0 **** 0.06
23420 H 37.8186895142761 149.51266444374073 43.56860653049429 H 0.0 **** 0.06
23421 C 20.07456728062332 16.84558760001474 96.48644518505023 C 0.0 **** -0.24
23422 H 19.0042884650694 16.64555906355025 96.43139779108827 H 0.0 **** 0.06
23423 H 20.503049071477193 16.301248569125505 97.32812252407297 H 0.0 **** 0.06
23424 H 20.236247976343734 17.915424919088025 96.6242416493725 H 0.0 **** 0.06
23425 H 20.552295534392997 16.521933537898832 95.56199447566746 H 0.0 **** 0.06
23426 C 159.13732900226913 84.59468627721792 117.36145276455709 C 0.0 **** -0.24
23427 H 158.83197285656388 83.75696193114729 117.98987137725733 H 0.0 **** 0.06
23428 H 160.1736173347495 84.4564347968464 117.05229358980758 H 0.0 **** 0.06
23429 H 159.0466038114855 85.52340214010847 117.92476453264219 H 0.0 **** 0.06
23430 H 158.49732224769545 84.63877519359009 116.48085759221802 H 0.0 **** 0.06
23431 C 174.29128423662814 57.13525942337151 103.20933746343017 C 0.0 **** -0.24
23432 H 174.98299336803893 57.97537078353936 103.27091458367424 H 0.0 **** 0.06
23433 H 174.76183341304318 56.31645983056788 102.66340238769403 H 0.0 **** 0.06
23434 H 173.3865781018169 57.44720455797716 102.68833325542975 H 0.0 **** 0.06
23435 H 174.03512992009973 56.8017963182192 104.21464023903708 H 0.0 **** 0.06
23436 C 70.96810474890492 69.86593961712686 54.26574414827644 C 0.0 **** -0.24
23437 H 71.22240915664185 70.53321426871332 53.44310927483693 H 0.0 **** 0.06
23438 H 71.8802730189044 69.42735962099812 54.6720408766531 H 0.0 **** 0.06
23439 H 70.3149491886459 69.07221707547944 53.90087328804289 H 0.0 **** 0.06
23440 H 70.45582237181094 70.42836895529967 55.045477651050845 H 0.0 **** 0.06
23441 C 181.39219143664425 103.48403814351343 161.99539253651054 C 0.0 **** -0.24
23442 H 181.79474467346367 102.57079868352929 162.43398454657662 H 0.0 **** 0.06
23443 H 182.20615789836305 104.07125346055557 161.5698115885703 H 0.0 **** 0.06
23444 H 180.88900464735843 104.06518548812232 162.76690088645057 H 0.0 **** 0.06
23445 H 180.68075536460472 103.22620056272586 161.2106875808047 H 0.0 **** 0.06
23446 C 128.92729611703368 127.26357498979722 159.296024112442 C 0.0 **** -0.24
23447 H 128.5482041230652 126.4503811881413 158.67637624030536 H 0.0 **** 0.06
23448 H 128.09076547621652 127.81910479493133 159.71928463749762 H 0.0 **** 0.06
23449 H 129.53609343227424 127.93045623293911 158.68611462633368 H 0.0 **** 0.06
23450 H 129.53514387040303 126.85122800306264 160.10192141120905 H 0.0 **** 0.06
23451 C 3.426290058324568 29.987809726309933 110.26338414192993 C 0.0 **** -0.24
23452 H 2.6031928550748304 29.381933939814246 110.64233650103763 H 0.0 **** 0.06
23453 H 4.239359835713856 29.99143102304697 110.98909467503573 H 0.0 **** 0.06
23454 H 3.0802803810428685 31.00852485199343 110.09976780766978 H 0.0 **** 0.06
23455 H 3.781524113050331 29.569934493911717 109.32133137058865 H 0.0 **** 0.06
23456 C 110.20640292239109 140.7743399361326 119.82879442369727 C 0.0 **** -0.24
23457 H 110.79929838507671 140.58189899100972 120.72314995943458 H 0.0 **** 0.06
23458 H 110.73014129803543 140.38531451865077 118.95565027768907 H 0.0 **** 0.06
23459 H 110.05973178679248 141.84885281451147 119.71524691300567 H 0.0 **** 0.06
23460 H 109.2384755492353 140.28377574760555 119.92196466504703 H 0.0 **** 0.06
23461 C 121.5852442567147 48.941726811416885 169.6572469535854 C 0.0 **** -0.24
23462 H 120.62000014587642 49.28351801353887 169.2808256524172 H 0.0 **** 0.06
23463 H 121.89919414750563 48.05855014518335 169.1003270123727 H 0.0 **** 0.06
23464 H 121.49394613114902 48.692307629304594 170.7138727435085 H 0.0 **** 0.06
23465 H 122.32409121291761 49.73219111627279 169.53227224449017 H 0.0 **** 0.06
23466 C 23.253901084301532 113.75222798902153 146.96266111379376 C 0.0 **** -0.24
23467 H 23.59936143385397 113.48197324422286 147.96063400353867 H 0.0 **** 0.06
23468 H 22.202730159961447 113.48361744797815 146.85769717255863 H 0.0 **** 0.06
23469 H 23.842455228107042 113.21662994542801 146.21760599817333 H 0.0 **** 0.06
23470 H 23.371829801375156 114.82579413026109 146.81631933747724 H 0.0 **** 0.06
23471 C 19.773367853548542 110.00850712429 78.44894714813034 C 0.0 **** -0.24
23472 H 19.495708299097764 110.68139154490986 79.26033244150683 H 0.0 **** 0.06
23473 H 18.87365694522027 109.57197299940778 78.01477596823442 H 0.0 **** 0.06
23474 H 20.411024440302334 109.21440229692665 78.83746222504958 H 0.0 **** 0.06
23475 H 20.313081729573597 110.56626165591582 77.68321795773043 H 0.0 **** 0.06
23476 C 167.92047471352473 126.54706086799871 25.762757364315803 C 0.0 **** -0.24
23477 H 167.43722658295425 126.34636054603703 24.806674740597202 H 0.0 **** 0.06
23478 H 168.75269343166192 127.23506608225887 25.611366439066984 H 0.0 **** 0.06
23479 H 168.2916216613872 125.61365524329261 26.18495782026997 H 0.0 **** 0.06
23480 H 167.19994033511236 126.99443619645655 26.44758135125514 H 0.0 **** 0.06
23481 C 50.71037903720591 76.63496914186481 155.42887730820595 C 0.0 **** -0.24
23482 H 51.794064346431384 76.52641019690043 155.37437506376637 H 0.0 **** 0.06
23483 H 50.4140165246192 76.8030216544015 156.46502691919065 H 0.0 **** 0.06
23484 H 50.23487209726804 75.72766088243554 155.0576695346415 H 0.0 **** 0.06
23485 H 50.400244842737735 77.4843691405199 154.82035057615215 H 0.0 **** 0.06
23486 C 147.14755642012602 59.15804104897407 169.6489971651286 C 0.0 **** -0.24
23487 H 147.95128081473268 59.188944368172486 168.91375881547435 H 0.0 **** 0.06
23488 H 146.21889316414837 58.86192058732516 169.15956317506567 H 0.0 **** 0.06
23489 H 147.02425890508295 60.14500530284222 170.09505394590724 H 0.0 **** 0.06
23490 H 147.39449703257907 58.4364007724222 170.4270562786535 H 0.0 **** 0.06
23491 C 182.92789211752537 1.75576998734617 21.69472168613396 C 0.0 **** -0.24
23492 H 182.09777393665934 1.1997165682166866 22.13045528067289 H 0.0 **** 0.06
23493 H 183.80187671497183 1.1081168942368933 21.625275604635362 H 0.0 **** 0.06
23494 H 183.1600116112482 2.614432739699211 22.32512567854363 H 0.0 **** 0.06
23495 H 182.6507927406242 2.101371685072138 20.69870021570614 H 0.0 **** 0.06
23496 C 74.81489120527483 160.8465470796559 141.69948921499514 C 0.0 **** -0.24
23497 H 75.74393591526828 160.4154900692683 141.32695715695235 H 0.0 **** 0.06
23498 H 73.97138281937457 160.40610907039706 141.1672737116151 H 0.0 **** 0.06
23499 H 74.82421946265794 161.92422461965413 141.53676410017061 H 0.0 **** 0.06
23500 H 74.72054943467131 160.64004488927233 142.7653418437102 H 0.0 **** 0.06
23501 C 32.756128853736456 152.5721384164308 178.92626075891258 C 0.0 **** -0.24
23502 H 32.07955223838104 152.54742343444627 179.78035771486796 H 0.0 **** 0.06
23503 H 33.15868150990458 151.57393817139115 178.7524015995178 H 0.0 **** 0.06
23504 H 33.57324193029646 153.26391515445704 179.12980563632712 H 0.0 **** 0.06
23505 H 32.21255891370366 152.90348674830338 178.04162673292296 H 0.0 **** 0.06
23506 C 173.71681533129407 172.88058523058095 104.67665570605219 C 0.0 **** -0.24
23507 H 173.40660647672738 172.15977522580198 105.43283211031086 H 0.0 **** 0.06
23508 H 172.8679219251135 173.50791503292385 104.40277855533294 H 0.0 **** 0.06
23509 H 174.07665192935335 172.34974419984064 103.79445174891127 H 0.0 **** 0.06
23510 H 174.51647452376767 173.5047104970746 105.07566221363821 H 0.0 **** 0.06
23511 C 111.68122324297617 130.31588519783446 68.60608091038489 C 0.0 **** -0.24
23512 H 112.68013900356318 129.88485887421768 68.53786083282344 H 0.0 **** 0.06
23513 H 111.44743591744718 130.52931948714058 69.64938320039153 H 0.0 **** 0.06
23514 H 110.95271764442357 129.60996876811782 68.20765909577631 H 0.0 **** 0.06
23515 H 111.64516344673403 131.24021924182284 68.02945830282425 H 0.0 **** 0.06
23516 C 104.63318805326624 130.51616680081014 60.15978056164181 C 0.0 **** -0.24
23517 H 104.51612979546819 129.8830734915045 61.03994623717415 H 0.0 **** 0.06
23518 H 103.68663123159108 130.56848376069792 59.621601698962905 H 0.0 **** 0.06
23519 H 105.39958680816163 130.094740717867 59.508636653260865 H 0.0 **** 0.06
23520 H 104.93126454199226 131.5176406278984 60.47025269562502 H 0.0 **** 0.06
23521 C 172.858345421543 122.77521572709799 5.739954081722594 C 0.0 **** -0.24
23522 H 173.25021056246996 123.26705360401263 4.850180765600825 H 0.0 **** 0.06
23523 H 173.1959843708368 123.30885900711769 6.628577827113254 H 0.0 **** 0.06
23524 H 173.21795780041705 121.74723381810247 5.774049146133528 H 0.0 **** 0.06
23525 H 171.7685300627105 122.77824849248918 5.705900181807962 H 0.0 **** 0.06
23526 C 42.26199402870394 77.22700127965754 132.20244614742558 C 0.0 **** -0.24
23527 H 42.96210070602497 76.44566774122848 131.90513666538038 H 0.0 **** 0.06
23528 H 42.81022072998344 78.04844957018463 132.66435151398713 H 0.0 **** 0.06
23529 H 41.54583172721834 76.82042085171594 132.91674460366494 H 0.0 **** 0.06
23530 H 41.731265958539566 77.59251127930713 131.323618799938 H 0.0 **** 0.06
23531 C 182.86804489883247 55.36113901284574 156.21214424675344 C 0.0 **** -0.24
23532 H 182.70497405470974 55.43677413512921 157.28716312483863 H 0.0 **** 0.06
23533 H 182.0489257112974 55.850524232670125 155.68593401509855 H 0.0 **** 0.06
23534 H 182.9101646643083 54.3107445642504 155.92482599137497 H 0.0 **** 0.06
23535 H 183.8085365486157 55.84648296167512 155.95378782658963 H 0.0 **** 0.06
23536 C 85.576723317588 147.30568767159178 97.52033781654899 C 0.0 **** -0.24
23537 H 84.53611810984705 147.04268715787265 97.32556887490182 H 0.0 **** 0.06
23538 H 85.94986003307793 147.9304482846423 96.7090810624444 H 0.0 **** 0.06
23539 H 86.17353200265978 146.39660224235251 97.5849552029182 H 0.0 **** 0.06
23540 H 85.64293417924006 147.85211631808255 98.46111101841353 H 0.0 **** 0.06
23541 C 43.397919341964666 125.58699279685978 129.6361034292658 C 0.0 **** -0.24
23542 H 43.13402026084384 125.28932024524705 130.65094661499114 H 0.0 **** 0.06
23543 H 43.15178228344871 126.63986110345105 129.49069265270413 H 0.0 **** 0.06
23544 H 42.838556595866635 124.98149028592609 128.92263696058563 H 0.0 **** 0.06
23545 H 44.4665079204953 125.43837853206098 129.4797141030815 H 0.0 **** 0.06
23546 C 6.038166314473656 174.50107558497857 129.6998122487297 C 0.0 **** -0.24
23547 H 6.119756192115439 175.4997668421671 129.27219770491638 H 0.0 **** 0.06
23548 H 5.1485564493158975 174.00850785328333 129.30537883494736 H 0.0 **** 0.06
23549 H 5.960790514876962 174.57650531502662 130.7849734040837 H 0.0 **** 0.06
23550 H 6.922406090808543 173.92006802967705 129.4373039474583 H 0.0 **** 0.06
23551 C 128.11006736160562 49.760348866720605 140.52360896298512 C 0.0 **** -0.24
23552 H 127.95258892293037 50.51860006425595 139.7565789600191 H 0.0 **** 0.06
23553 H 127.16205282946197 49.53476298024334 141.01120900390407 H 0.0 **** 0.06
23554 H 128.82058585584622 50.13319832615457 141.26167002086487 H 0.0 **** 0.06
23555 H 128.50727835675337 48.8552962962942 140.06279049362752 H 0.0 **** 0.06
23556 C 126.83929365163236 43.24891095472273 132.7515031680444 C 0.0 **** -0.24
23557 H 126.73401221690823 42.82600551884556 133.751015647303 H 0.0 **** 0.06
23558 H 127.7424723009335 43.85909446503936 132.70936272255307 H 0.0 **** 0.06
23559 H 125.97059146659804 43.86666612047337 132.52567710361836 H 0.0 **** 0.06
23560 H 126.91161970461208 42.44127440673428 132.02193442346584 H 0.0 **** 0.06
23561 C 156.02012442288407 138.97248814769313 93.37142556660918 C 0.0 **** -0.24
23562 H 155.093363248701 139.53836368762 93.46743581570912 H 0.0 **** 0.06
23563 H 156.0878759867682 138.24702488543375 94.18291874354354 H 0.0 **** 0.06
23564 H 156.86864397979198 139.65513116135122 93.42254750892918 H 0.0 **** 0.06
23565 H 156.03040004453806 138.4502532210073 92.41549857158121 H 0.0 **** 0.06
23566 C 62.019574242817754 94.12521136488941 150.5066688236836 C 0.0 **** -0.24
23567 H 61.22261896767196 94.11123862632611 151.24984875077288 H 0.0 **** 0.06
23568 H 62.982623191583684 94.22443877670246 151.0092034488165 H 0.0 **** 0.06
23569 H 61.873232345970564 94.96813305147462 149.83192263375793 H 0.0 **** 0.06
23570 H 62.00132306245342 93.19619714623609 149.93672335037354 H 0.0 **** 0.06
23571 C 152.26867164865718 26.06589980460194 131.8073132260086 C 0.0 **** -0.24
23572 H 151.73934462574198 25.610990095979304 132.64502227002055 H 0.0 **** 0.06
23573 H 151.98517082640137 27.11601698915959 131.72768547176724 H 0.0 **** 0.06
23574 H 152.0042539902243 25.547765165679095 130.88620621303272 H 0.0 **** 0.06
23575 H 153.34259265392535 25.989893240584237 131.97168472732625 H 0.0 **** 0.06
23576 C 88.8887469942509 165.6451536010485 21.97262876231001 C 0.0 **** -0.24
23577 H 89.18447330945087 164.8399110171011 21.29965498342824 H 0.0 **** 0.06
23578 H 89.70618915129846 166.36180957222507 22.063027592381857 H 0.0 **** 0.06
23579 H 88.65718587271469 165.23163265191994 22.953861261985324 H 0.0 **** 0.06
23580 H 88.007939987114 166.14781020500837 21.572536611457252 H 0.0 **** 0.06
23581 C 170.25076278184 28.31324736986751 15.1844971466316 C 0.0 **** -0.24
23582 H 170.36181566726526 27.64185012667265 16.036201538841055 H 0.0 **** 0.06
23583 H 170.29686253257034 27.73795715265578 14.259426684229823 H 0.0 **** 0.06
23584 H 171.053715075193 29.05032108020768 15.196043763802663 H 0.0 **** 0.06
23585 H 169.28901845918915 28.822376325571582 15.247757949064692 H 0.0 **** 0.06
23586 C 167.38217141653007 180.81445421944477 88.75042569830093 C 0.0 **** -0.24
23587 H 167.2921799020147 181.86891232878054 88.48840661626816 H 0.0 **** 0.06
23588 H 168.03006408550812 180.71094855015212 89.62118114258185 H 0.0 **** 0.06
23589 H 167.81053165159932 180.26714625938428 87.9113787134434 H 0.0 **** 0.06
23590 H 166.3962385372833 180.41173781319029 88.98056086475451 H 0.0 **** 0.06
23591 C 63.74394424375561 181.60618098981888 112.8337765293508 C 0.0 **** -0.24
23592 H 63.698031463394614 182.69517071052564 112.82274164525096 H 0.0 **** 0.06
23593 H 64.76747211489499 181.28845545789414 113.03549310010625 H 0.0 **** 0.06
23594 H 63.427154714540734 181.2193305466717 111.86542200616175 H 0.0 **** 0.06
23595 H 63.08414723655619 181.22334083621837 113.61266015389417 H 0.0 **** 0.06
23596 C 12.47818788384339 110.75403687250515 121.70360021624525 C 0.0 **** -0.24
23597 H 13.470940519031672 111.14394456866789 121.47506225579546 H 0.0 **** 0.06
23598 H 12.510794334075598 109.6645377981287 121.71671330326451 H 0.0 **** 0.06
23599 H 11.773470599795928 111.08763617461695 120.9415113545915 H 0.0 **** 0.06
23600 H 12.15941368266843 111.12171377356925 122.67834379242514 H 0.0 **** 0.06
23601 C 1.1735823983679268 42.68171534669568 175.90602009404427 C 0.0 **** -0.24
23602 H 0.8054223083006207 41.70599670750585 175.58927785924166 H 0.0 **** 0.06
23603 H 2.160568735424654 42.569573284133924 176.35568831805958 H 0.0 **** 0.06
23604 H 0.48750671355291786 43.10817021031738 176.6386426413442 H 0.0 **** 0.06
23605 H 1.2401582842670393 43.3436608089109 175.04227578382262 H 0.0 **** 0.06
23606 C 65.48938271705205 111.4385404643618 84.84266912136184 C 0.0 **** -0.24
23607 H 65.5285346420356 112.38439400122742 85.3831176208555 H 0.0 **** 0.06
23608 H 64.55688066908976 111.38141406260546 84.27979532888492 H 0.0 **** 0.06
23609 H 65.53623095290061 110.612414280863 85.55284667516497 H 0.0 **** 0.06
23610 H 66.33381605310294 111.37690913757721 84.15686137759371 H 0.0 **** 0.06
23611 C 108.7728813452592 37.5296549214936 58.34060689128421 C 0.0 **** -0.24
23612 H 108.0570776887606 36.70945793721526 58.384303212537134 H 0.0 **** 0.06
23613 H 109.77552469720054 37.14806569417772 58.53519196283355 H 0.0 **** 0.06
23614 H 108.51667310120276 38.276211794598 59.093258582332 H 0.0 **** 0.06
23615 H 108.74276373322287 37.98548942366034 57.35084419005375 H 0.0 **** 0.06
23616 C 142.16474560093116 10.99562829686974 36.58675245019978 C 0.0 **** -0.24
23617 H 142.09528395621936 10.784341802771934 37.65318455164487 H 0.0 **** 0.06
23618 H 143.18064864153115 11.305288009582938 36.342877029399915 H 0.0 **** 0.06
23619 H 141.4692104363249 11.793817386963156 36.328024084169726 H 0.0 **** 0.06
23620 H 141.91240263621523 10.097416675834694 36.02245971178564 H 0.0 **** 0.06
23621 C 143.30163653186958 177.56085340288087 134.68948108479822 C 0.0 **** -0.24
23622 H 142.8654738016847 177.04726794346425 135.5472843575302 H 0.0 **** 0.06
23623 H 143.69783419076032 176.8245627817988 133.98993343913872 H 0.0 **** 0.06
23624 H 144.10668712207178 178.212366670465 135.02737210138952 H 0.0 **** 0.06
23625 H 142.53378092914113 178.15590232456844 134.1951634584376 H 0.0 **** 0.06
23626 C 68.22655448922106 72.70096973589784 79.84241493208496 C 0.0 **** -0.24
23627 H 68.07630772909782 73.13677048422926 78.85406933856356 H 0.0 **** 0.06
23628 H 68.84363777717638 73.36806815432965 80.44362975105042 H 0.0 **** 0.06
23629 H 68.72506621567572 71.73667514877087 79.74203375977483 H 0.0 **** 0.06
23630 H 67.26071981365772 72.56133830647076 80.32800097723381 H 0.0 **** 0.06
23631 C 156.6730233976803 140.19790428452535 170.86031631890552 C 0.0 **** -0.24
23632 H 157.36522463902133 139.48000233732427 170.42021110218195 H 0.0 **** 0.06
23633 H 156.48111399979203 139.92709235060664 171.89941164022852 H 0.0 **** 0.06
23634 H 155.73703446561154 140.1893800924164 170.30275789716225 H 0.0 **** 0.06
23635 H 157.1112690926572 141.19506222829295 170.8204652711504 H 0.0 **** 0.06
23636 C 170.40418928965744 129.62045997272907 29.9846800756618 C 0.0 **** -0.24
23637 H 170.55343733948536 129.72878386488213 28.91056401668766 H 0.0 **** 0.06
23638 H 169.39711445783166 129.24923868349487 30.174749540513062 H 0.0 **** 0.06
23639 H 170.53174671661466 130.58942647523622 30.467793307233933 H 0.0 **** 0.06
23640 H 171.1334065677355 128.9158640214631 30.383963256654624 H 0.0 **** 0.06
23641 C 8.388553827689918 13.035815626061662 114.33758875095106 C 0.0 **** -0.24
23642 H 8.213586264339938 13.55108019805752 113.39314439819327 H 0.0 **** 0.06
23643 H 9.38745902569977 12.60088431425703 114.3352446198736 H 0.0 **** 0.06
23644 H 7.648225020107617 12.245690322744622 114.46246717948202 H 0.0 **** 0.06
23645 H 8.302555789540065 13.74581528089476 115.15999752072315 H 0.0 **** 0.06
23646 C 7.133824079072582 23.438792231223616 30.359460129742473 C 0.0 **** -0.24
23647 H 7.440283355230491 22.564864005731053 29.784846759121535 H 0.0 **** 0.06
23648 H 7.438318008353292 23.31408136479952 31.39920290586825 H 0.0 **** 0.06
23649 H 6.0511135848999515 23.546168528360695 30.307917535969807 H 0.0 **** 0.06
23650 H 7.607955765723773 24.329543668649734 29.946190960069615 H 0.0 **** 0.06
23651 C 149.56454424696665 140.68385603696447 73.440147999088 C 0.0 **** -0.24
23652 H 149.42809205486031 141.01293131970118 74.47005751402267 H 0.0 **** 0.06
23653 H 150.19561603861607 139.7941700929656 73.42495834660215 H 0.0 **** 0.06
23654 H 150.04118225432774 141.4773126892054 72.86510965473488 H 0.0 **** 0.06
23655 H 148.59494213168142 140.44977514703146 73.002398984496 H 0.0 **** 0.06
23656 C 10.279929075206816 8.26635170699194 13.018621899358727 C 0.0 **** -0.24
23657 H 9.706455276377007 9.068203357131438 12.553118830565232 H 0.0 **** 0.06
23658 H 11.214865340295333 8.668883077250428 13.408397525098287 H 0.0 **** 0.06
23659 H 10.494203633743915 7.496402335390712 12.278254617709088 H 0.0 **** 0.06
23660 H 9.700969880052035 7.8344523233598125 13.835158821313406 H 0.0 **** 0.06
23661 C 110.93856320302429 11.075430267613626 163.88163589715043 C 0.0 **** -0.24
23662 H 110.07720553354334 11.295382527758221 164.51096831251678 H 0.0 **** 0.06
23663 H 110.73077524834515 11.390802466835396 162.85864815005468 H 0.0 **** 0.06
23664 H 111.13728117634442 10.003988519740659 163.89901701382908 H 0.0 **** 0.06
23665 H 111.81012152209719 11.61236665293876 164.2581353213906 H 0.0 **** 0.06
23666 C 89.20130262301718 96.38304173670126 110.05751605134533 C 0.0 **** -0.24
23667 H 88.8737163637842 97.38557638113939 110.32940361713027 H 0.0 **** 0.06
23668 H 90.1716333923509 96.1810502432336 110.51238309362778 H 0.0 **** 0.06
23669 H 89.28639879924309 96.30959463331787 108.97336867908585 H 0.0 **** 0.06
23670 H 88.47369582933096 95.65373755371765 110.41464508105283 H 0.0 **** 0.06
23671 C 124.2389649922295 9.53873975447469 29.38679123640148 C 0.0 **** -0.24
23672 H 123.61727465172858 10.310445690365654 28.931240505768926 H 0.0 **** 0.06
23673 H 123.60202708381114 8.797949788051369 29.870596672708757 H 0.0 **** 0.06
23674 H 124.89639225349747 9.993860736412891 30.128063567710285 H 0.0 **** 0.06
23675 H 124.8394852989059 9.054962328387504 28.616607414038015 H 0.0 **** 0.06
23676 C 177.12695028667798 23.93149737691597 66.79982196737768 C 0.0 **** -0.24
23677 H 176.2639126300192 24.095903039750226 66.15519484471679 H 0.0 **** 0.06
23678 H 176.87666291064423 23.190422603220057 67.55919788346597 H 0.0 **** 0.06
23679 H 177.4032389960124 24.86856006325904 67.28351033912105 H 0.0 **** 0.06
23680 H 177.96347840931318 23.57043664443367 66.20084013875447 H 0.0 **** 0.06
23681 C 183.1512633777343 0.4276289620752891 64.11049985096165 C 0.0 **** -0.24
23682 H 182.67225164476474 0.5921596575380477 65.07624143118683 H 0.0 **** 0.06
23683 H 183.2851412147619 -0.6421155690270552 63.950017065578564 H 0.0 **** 0.06
23684 H 184.12232619335987 0.9224987767524908 64.09870005053918 H 0.0 **** 0.06
23685 H 182.5237135097097 0.8390528894426552 63.319532156560655 H 0.0 **** 0.06
23686 C 112.6588360792501 56.15911308761656 57.30669104849744 C 0.0 **** -0.24
23687 H 112.1337474172146 55.22342297339557 57.499388419796844 H 0.0 **** 0.06
23688 H 112.71910183355779 56.3259740689992 56.23138978549903 H 0.0 **** 0.06
23689 H 113.66454961711013 56.102679952231824 57.7236406303894 H 0.0 **** 0.06
23690 H 112.11751914113641 56.981668269115445 57.773566081617545 H 0.0 **** 0.06
23691 C 10.405743769567543 110.05867868903744 162.4096449732163 C 0.0 **** -0.24
23692 H 10.176110710338264 109.03836557841544 162.10164466350807 H 0.0 **** 0.06
23693 H 11.456281032807759 110.2698419305454 162.21234346895892 H 0.0 **** 0.06
23694 H 10.205820016079826 110.1692467097152 163.4754876312188 H 0.0 **** 0.06
23695 H 9.782932953354496 110.7560652463826 161.8495744101848 H 0.0 **** 0.06
23696 C 30.646977096105317 129.23390628934237 24.24780742704297 C 0.0 **** -0.24
23697 H 31.250327938540963 129.96831103628847 23.7127664658926 H 0.0 **** 0.06
23698 H 29.842705010240763 128.88511431690517 23.60060659484438 H 0.0 **** 0.06
23699 H 30.222776189246233 129.69452921447146 25.139951178443482 H 0.0 **** 0.06
23700 H 31.27361089242926 128.39044016394269 24.537694206238456 H 0.0 **** 0.06
23701 C 30.962778663649345 126.56541318998866 148.18008340193296 C 0.0 **** -0.24
23702 H 31.290322707312754 126.80601663448626 147.16880686256195 H 0.0 **** 0.06
23703 H 31.83074448326937 126.49999104865408 148.83703824863258 H 0.0 **** 0.06
23704 H 30.438944563952475 125.60916697552999 148.17396826116914 H 0.0 **** 0.06
23705 H 30.292273660913594 127.3456853023436 148.54049128196306 H 0.0 **** 0.06
23706 C 46.30690113131034 102.92816046361033 97.42180025951713 C 0.0 **** -0.24
23707 H 46.02400390504755 101.98386465756717 96.95575951721638 H 0.0 **** 0.06
23708 H 46.428487687709094 103.69012175697851 96.65131269790093 H 0.0 **** 0.06
23709 H 47.24572104509407 102.80066808977789 97.95909178491142 H 0.0 **** 0.06
23710 H 45.52721105017537 103.2366504271995 98.11870104087963 H 0.0 **** 0.06
23711 C 99.55552608375973 21.370480808354273 93.10579862709729 C 0.0 **** -0.24
23712 H 99.23757775917522 21.50113727248936 92.07085508111477 H 0.0 **** 0.06
23713 H 100.62719989725156 21.175434363551943 93.13461644602727 H 0.0 **** 0.06
23714 H 99.02105593137014 20.5271015339393 93.54482420513285 H 0.0 **** 0.06
23715 H 99.33390345674684 22.274873367480964 93.67148656872108 H 0.0 **** 0.06
23716 C 135.9451220601735 116.87407989440185 49.41079752683858 C 0.0 **** -0.24
23717 H 135.09101087087618 117.54444470485562 49.31631761623538 H 0.0 **** 0.06
23718 H 136.86181049916195 117.4200687804818 49.186449980782115 H 0.0 **** 0.06
23719 H 135.83531847955567 116.04506838095601 48.71120016865511 H 0.0 **** 0.06
23720 H 135.99197446779476 116.48678714077052 50.4282961868318 H 0.0 **** 0.06
23721 C 67.63795590746481 116.32935712773529 138.33003397425045 C 0.0 **** -0.24
23722 H 67.3587867248626 116.76778580527885 137.37200515304585 H 0.0 **** 0.06
23723 H 68.35998740398514 115.52826608252848 138.16568353278126 H 0.0 **** 0.06
23724 H 66.75089501357756 115.92542329385957 138.8169793184229 H 0.0 **** 0.06
23725 H 68.08424470294251 117.09581836769136 138.96419787984348 H 0.0 **** 0.06
23726 C 102.81334749163675 53.79984019986841 139.0099007801689 C 0.0 **** -0.24
23727 H 103.05737625747754 52.74126369636093 139.09858058803826 H 0.0 **** 0.06
23728 H 103.73062402826038 54.375698513651315 138.8914005900363 H 0.0 **** 0.06
23729 H 102.29178517704905 54.12792669386755 139.90878751212506 H 0.0 **** 0.06
23730 H 102.17281109531551 53.952578784663444 138.14172142406125 H 0.0 **** 0.06
23731 C 58.211409777274255 35.120381374918026 97.55236497733534 C 0.0 **** -0.24
23732 H 58.77503071255457 35.90971443258377 98.0500447297718 H 0.0 **** 0.06
23733 H 57.143527919472774 35.31545639154632 97.65592879738011 H 0.0 **** 0.06
23734 H 58.451627447789434 34.15940745537628 98.00786467396597 H 0.0 **** 0.06
23735 H 58.475238543370935 35.097147013231734 96.49466562075878 H 0.0 **** 0.06
23736 C 34.89005369644491 139.8160928219691 21.023332796598936 C 0.0 **** -0.24
23737 H 35.020525756312054 139.16863685438 20.15598154987788 H 0.0 **** 0.06
23738 H 33.85546256423913 139.7606944406778 21.364166493782363 H 0.0 **** 0.06
23739 H 35.12771284217061 140.84315617816554 20.748761636181968 H 0.0 **** 0.06
23740 H 35.55483889172126 139.48993672699754 21.822870910846177 H 0.0 **** 0.06
23741 C 4.747587621442214 151.95531020978305 128.59319249621427 C 0.0 **** -0.24
23742 H 5.063256714770603 152.90999165551762 128.17262297762915 H 0.0 **** 0.06
23743 H 5.509361666530758 151.20063263862633 128.3938524163686 H 0.0 **** 0.06
23744 H 3.806185900348609 151.65061496661255 128.13595407639957 H 0.0 **** 0.06
23745 H 4.612208457986803 152.05956390779042 129.66973232946458 H 0.0 **** 0.06
23746 C 31.71799044581053 75.86883032839036 160.002007420104 C 0.0 **** -0.24
23747 H 32.3161417214057 75.47026616003825 159.18275287396403 H 0.0 **** 0.06
23748 H 30.889706447258504 76.45161077439988 159.59659037449998 H 0.0 **** 0.06
23749 H 32.33930460581371 76.50758018704418 160.629235990655 H 0.0 **** 0.06
23750 H 31.32495660889805 75.04488608274558 160.59818077001748 H 0.0 **** 0.06
23751 C 134.87395602804088 169.92012278068285 28.546859234029853 C 0.0 **** -0.24
23752 H 134.74346820231779 169.50472338630414 29.5465475129065 H 0.0 **** 0.06
23753 H 134.13349681149793 170.7018905268293 28.37836384461552 H 0.0 **** 0.06
23754 H 134.74513545882763 169.13024349673424 27.806696855259233 H 0.0 **** 0.06
23755 H 135.87568842032334 170.34176491070843 28.45711224869271 H 0.0 **** 0.06
23756 C 117.90614072143586 103.24617704831309 145.44496266223268 C 0.0 **** -0.24
23757 H 118.11426287773088 102.48101398932124 144.69642806120487 H 0.0 **** 0.06
23758 H 117.42533980424145 102.78699840541401 146.30907366782708 H 0.0 **** 0.06
23759 H 117.24472932828928 104.00031892427575 145.0185774366215 H 0.0 **** 0.06
23760 H 118.84061594745441 103.71501427533451 145.75435898808968 H 0.0 **** 0.06
23761 C 33.63694244805828 114.47797986822475 97.66737907233316 C 0.0 **** -0.24
23762 H 34.23249165944884 114.92896603205052 98.46030589613291 H 0.0 **** 0.06
23763 H 32.62052064189385 114.86951316607046 97.70975541545933 H 0.0 **** 0.06
23764 H 33.61581148339749 113.39569783229392 97.79900150603457 H 0.0 **** 0.06
23765 H 34.07894600749296 114.71774244248392 96.70045347170576 H 0.0 **** 0.06
23766 C 115.21919472006175 176.5536341796323 7.400388699979345 C 0.0 **** -0.24
23767 H 114.47715770590355 177.1505985009086 6.870858706210242 H 0.0 **** 0.06
23768 H 114.90867290338969 175.50769451715126 7.403362651659933 H 0.0 **** 0.06
23769 H 115.30722322381331 176.90988473908413 8.427154449623316 H 0.0 **** 0.06
23770 H 116.18324365551359 176.6445988203733 6.899360295544852 H 0.0 **** 0.06
23771 C 48.926103036595975 120.2725467331406 29.10633832264496 C 0.0 **** -0.24
23772 H 49.720122745963806 119.57573698627245 29.37670708183795 H 0.0 **** 0.06
23773 H 48.2558012233489 120.40706661039918 29.955071046319517 H 0.0 **** 0.06
23774 H 48.36574578583193 119.8721355709961 28.261383282228095 H 0.0 **** 0.06
23775 H 49.36346107946494 121.23166897882594 28.83136961289071 H 0.0 **** 0.06
23776 C 130.2227431213542 51.383742965521776 177.89876200456953 C 0.0 **** -0.24
23777 H 131.17833362903377 50.860225247270364 177.8696700340522 H 0.0 **** 0.06
23778 H 129.422837933766 50.69465703518267 177.62716369201362 H 0.0 **** 0.06
23779 H 130.2427582602832 52.2148613500882 177.19368258134867 H 0.0 **** 0.06
23780 H 130.0481886765698 51.76571451613293 178.90520269980206 H 0.0 **** 0.06
23781 C 134.07820800276016 82.1870549220368 81.69861747751796 C 0.0 **** -0.24
23782 H 133.37146944574755 81.90666000667682 82.48051625639754 H 0.0 **** 0.06
23783 H 133.67196879215714 81.91012541824068 80.72590420439431 H 0.0 **** 0.06
23784 H 135.0223135871156 81.66627052396677 81.86020842222372 H 0.0 **** 0.06
23785 H 134.24583145333395 83.26324527109563 81.73024111422856 H 0.0 **** 0.06
23786 C 79.5037567404662 102.380668284771 21.680745241105825 C 0.0 **** -0.24
23787 H 79.01838387241732 101.98113248132542 22.570941665023696 H 0.0 **** 0.06
23788 H 78.78547543744983 102.41380445675084 20.86074989990064 H 0.0 **** 0.06
23789 H 80.34053662535827 101.73940410991933 21.406163716393735 H 0.0 **** 0.06
23790 H 79.86862181090267 103.3863966541325 21.886614771102472 H 0.0 **** 0.06
23791 C 83.52391348824825 5.860743445024582 18.167130012530137 C 0.0 **** -0.24
23792 H 84.1980026436622 5.960550985789325 17.315680860339235 H 0.0 **** 0.06
23793 H 83.78233398987867 4.96512186399849 18.731675121003946 H 0.0 **** 0.06
23794 H 82.49706691521473 5.781965816580396 17.808681147662824 H 0.0 **** 0.06
23795 H 83.61793648012866 6.736001325928157 18.80842607096757 H 0.0 **** 0.06
23796 C 112.02657929890016 83.35125860456495 93.4587961204125 C 0.0 **** -0.24
23797 H 112.1251832608635 82.26703729975713 93.5242164506356 H 0.0 **** 0.06
23798 H 111.08744661493394 83.60049486833215 92.96368554926181 H 0.0 **** 0.06
23799 H 112.8596475666494 83.75727196739982 92.88589669815792 H 0.0 **** 0.06
23800 H 112.03345793160834 83.7765590771652 94.46181482799943 H 0.0 **** 0.06
23801 C 49.426690747032524 56.02445410450483 28.760265281300406 C 0.0 **** -0.24
23802 H 49.52535250269017 55.33872929437965 27.919786451792277 H 0.0 **** 0.06
23803 H 49.540614173008976 55.47286992664708 29.694024209698284 H 0.0 **** 0.06
23804 H 48.44351033662417 56.49458317854149 28.733259637790297 H 0.0 **** 0.06
23805 H 50.19729736828515 56.792379409151835 28.695554263498536 H 0.0 **** 0.06
23806 C 16.815720892760915 69.4971159947109 34.68880188313605 C 0.0 **** -0.24
23807 H 17.34033029098446 68.55270377032 34.83516070254473 H 0.0 **** 0.06
23808 H 16.794561942224355 69.73943664329511 33.62534694061779 H 0.0 **** 0.06
23809 H 17.333430194002098 70.2879279238927 35.23108217945969 H 0.0 **** 0.06
23810 H 15.79548579903529 69.40785537659269 35.06165474014662 H 0.0 **** 0.06
23811 C 172.52367535647036 71.56560446714917 181.76165509881588 C 0.0 **** -0.24
23812 H 172.13114537468428 71.86949967954234 180.7917719863364 H 0.0 **** 0.06
23813 H 173.5845194271737 71.3335712350625 181.66717863930873 H 0.0 **** 0.06
23814 H 171.98759811513622 70.68323639226423 182.1108443449483 H 0.0 **** 0.06
23815 H 172.3914918645899 72.37694688779675 182.47737107711438 H 0.0 **** 0.06
23816 C 137.06454900114693 119.66939975770394 133.8907006357789 C 0.0 **** -0.24
23817 H 137.81918142569856 119.09569643613092 133.35318993676782 H 0.0 **** 0.06
23818 H 136.65510929817555 120.43673832906616 133.23397999456887 H 0.0 **** 0.06
23819 H 137.5205415963448 120.14124261090414 134.76137304915358 H 0.0 **** 0.06
23820 H 136.26483928138884 119.00367767087651 134.2159218528817 H 0.0 **** 0.06
23821 C 46.004662544699755 5.0882902974725965 183.52340955384483 C 0.0 **** -0.24
23822 H 47.03443570643962 5.2556080975378805 183.2076812646165 H 0.0 **** 0.06
23823 H 45.974261325005585 4.9505795529076835 184.60379090107133 H 0.0 **** 0.06
23824 H 45.61538911946725 4.195710925068681 183.031774859255 H 0.0 **** 0.06
23825 H 45.39603340899002 5.948683327216372 183.24752961445887 H 0.0 **** 0.06
23826 C 95.72685053266565 140.32355676813302 25.937083045706686 C 0.0 **** -0.24
23827 H 95.58706502943517 140.6624894527663 24.90998809285361 H 0.0 **** 0.06
23828 H 96.64814915022549 139.744212077523 26.005865137650574 H 0.0 **** 0.06
23829 H 94.88318366073798 139.70091270109157 26.232389501281574 H 0.0 **** 0.06
23830 H 95.79138213517234 141.187921285728 26.598466468129118 H 0.0 **** 0.06
23831 C 88.77610817812881 176.61603318266393 144.36973553610284 C 0.0 **** -0.24
23832 H 88.40447658002604 176.9206175198335 143.39080207206572 H 0.0 **** 0.06
23833 H 88.04965910994032 175.95536848971605 144.8435849782188 H 0.0 **** 0.06
23834 H 88.9261171211915 177.49803696017335 144.9912152069678 H 0.0 **** 0.06
23835 H 89.72323905693501 176.08988102846718 144.24972563215402 H 0.0 **** 0.06
23836 C 0.6933584014817598 7.981549152457369 172.48588661320116 C 0.0 **** -0.24
23837 H -0.2495351786361084 8.51550671392745 172.60776936378926 H 0.0 **** 0.06
23838 H 1.0647305421793476 8.130766986874399 171.47139256893794 H 0.0 **** 0.06
23839 H 0.5338657817030708 6.918534379870124 172.66235480604598 H 0.0 **** 0.06
23840 H 1.4213176655487132 8.36434596494503 173.20004922318458 H 0.0 **** 0.06
23841 C 87.10701474642899 175.07789956085767 172.37054353244383 C 0.0 **** -0.24
23842 H 87.0252291102007 175.37859064921525 171.32652757620224 H 0.0 **** 0.06
23843 H 86.11088552233578 174.9090775092944 172.78018246956725 H 0.0 **** 0.06
23844 H 87.60364700789675 175.86542502578664 172.9371883928615 H 0.0 **** 0.06
23845 H 87.68826742148677 174.1587128698298 172.43999499141668 H 0.0 **** 0.06
23846 C 170.55362521839234 52.24013596745624 134.16978641999964 C 0.0 **** -0.24
23847 H 171.37449061947936 52.8446804663169 134.55621276253248 H 0.0 **** 0.06
23848 H 170.73368166217506 51.19163804962315 134.40466112641764 H 0.0 **** 0.06
23849 H 170.48845539731627 52.36572159670462 133.08933674982507 H 0.0 **** 0.06
23850 H 169.6191144710049 52.561981937800084 134.6295365713312 H 0.0 **** 0.06
23851 C 109.42380545490431 153.93434736390984 65.16139423142077 C 0.0 **** -0.24
23852 H 110.3037450827116 153.72667826999347 65.770540495789 H 0.0 **** 0.06
23853 H 108.59261222680101 153.31811686285948 65.50276225413296 H 0.0 **** 0.06
23854 H 109.64229446899475 153.70544880143024 64.11827517532738 H 0.0 **** 0.06
23855 H 109.15844251088015 154.98776439461406 65.2543320945808 H 0.0 **** 0.06
23856 C 38.99060973670208 112.16116654658835 44.153373281291294 C 0.0 **** -0.24
23857 H 38.36253726443772 111.30282702417519 43.914608543021586 H 0.0 **** 0.06
23858 H 40.013611941934755 111.82602009007509 44.32087156365503 H 0.0 **** 0.06
23859 H 38.614100985545576 112.64714517341967 45.0533256642085 H 0.0 **** 0.06
23860 H 38.96970507930439 112.86724625940825 43.32249794272008 H 0.0 **** 0.06
23861 C 119.5083901138337 178.74301969658347 182.82723325585545 C 0.0 **** -0.24
23862 H 118.6030170435731 179.16070454434134 182.38595176484847 H 0.0 **** 0.06
23863 H 119.43419632823357 177.65536020199823 182.84661078276466 H 0.0 **** 0.06
23864 H 119.6221628988779 179.11830674162837 183.84412988016274 H 0.0 **** 0.06
23865 H 120.3720512448438 179.0388124194338 182.2317616139171 H 0.0 **** 0.06
23866 C 83.68445478377993 46.05070406092992 65.50631071058002 C 0.0 **** -0.24
23867 H 83.18351080860073 46.97262115905096 65.21314125519922 H 0.0 **** 0.06
23868 H 83.89317984671999 45.45271262410722 64.61852273865571 H 0.0 **** 0.06
23869 H 83.0408858902047 45.48631256074981 66.18175478506907 H 0.0 **** 0.06
23870 H 84.61916404285152 46.290255146261046 66.01182055695193 H 0.0 **** 0.06
23871 C 18.03553203693511 145.19705529708182 166.76439118073648 C 0.0 **** -0.24
23872 H 17.80440647442387 144.1453648968681 166.92891048363975 H 0.0 **** 0.06
23873 H 19.017512322686287 145.4231386673851 167.17973246989374 H 0.0 **** 0.06
23874 H 17.283193481136863 145.81478362419006 167.25324876432825 H 0.0 **** 0.06
23875 H 18.036688291289522 145.40467736267942 165.69399166513924 H 0.0 **** 0.06
23876 C 78.6974809481481 53.856500037378794 73.73867358536957 C 0.0 **** -0.24
23877 H 78.41155887755207 52.87057134847805 74.10461284766315 H 0.0 **** 0.06
23878 H 77.80351826128492 54.4082155224761 73.44481793047262 H 0.0 **** 0.06
23879 H 79.35689837532755 53.74708669219004 72.87874527742689 H 0.0 **** 0.06
23880 H 79.21686155505807 54.40078156127112 74.52904617790657 H 0.0 **** 0.06
23881 C 93.48154255506154 39.660496810056685 25.633864659700464 C 0.0 **** -0.24
23882 H 93.19397995388147 39.822783922043214 24.595630110722738 H 0.0 **** 0.06
23883 H 94.50077640647595 40.013523325092876 25.787741153488128 H 0.0 **** 0.06
23884 H 93.42709051227786 38.59621194601627 25.863115765328047 H 0.0 **** 0.06
23885 H 92.80368771696834 40.207531342275814 26.28805222262814 H 0.0 **** 0.06
23886 C 92.84187711140076 176.4437589876924 100.22505670508811 C 0.0 **** -0.24
23887 H 92.59024885066053 177.25168375065965 99.53799400102962 H 0.0 **** 0.06
23888 H 93.49752906325371 176.82434340382977 101.00943316420877 H 0.0 **** 0.06
23889 H 93.35022814790058 175.64848523455774 99.68026937601668 H 0.0 **** 0.06
23890 H 91.9293195404186 176.05131732353303 100.67368637594474 H 0.0 **** 0.06
23891 C 57.16753626137229 68.19332477639222 135.77061273000965 C 0.0 **** -0.24
23892 H 57.3587343681195 69.25871493363357 135.89616129468288 H 0.0 **** 0.06
23893 H 56.370913892509364 67.88532306515238 136.44892323927877 H 0.0 **** 0.06
23894 H 58.074679117848575 67.63257745949457 135.9971776478081 H 0.0 **** 0.06
23895 H 56.86529106290129 67.99726839322145 134.7417317335537 H 0.0 **** 0.06
23896 C 57.65210109801461 77.25434711058713 88.78334570014556 C 0.0 **** -0.24
23897 H 57.39862761684287 76.2417194266094 88.4714503610574 H 0.0 **** 0.06
23898 H 57.02854657881858 77.96718609765277 88.24296830913295 H 0.0 **** 0.06
23899 H 58.70157619744427 77.44994715238846 88.56419736636565 H 0.0 **** 0.06
23900 H 57.47935000515071 77.3577231474985 89.85426950740725 H 0.0 **** 0.06
23901 C 171.07565056037166 107.0735407293677 162.05672938486617 C 0.0 **** -0.24
23902 H 170.64329077249062 107.1079252521801 161.05619297446702 H 0.0 **** 0.06
23903 H 172.10693688834994 106.72725654160219 161.9944869927516 H 0.0 **** 0.06
23904 H 170.49838517625523 106.38847172454983 162.67753571097404 H 0.0 **** 0.06
23905 H 171.05249621476628 108.06969453905201 162.49693932444245 H 0.0 **** 0.06
23906 C 168.4777758294758 153.06259149735885 22.622636273295754 C 0.0 **** -0.24
23907 H 169.07163132975808 153.93540125856453 22.894112110510875 H 0.0 **** 0.06
23908 H 168.5958158603648 152.29237426499355 23.38402861581784 H 0.0 **** 0.06
23909 H 168.81733747083874 152.6784920273425 21.66057813617749 H 0.0 **** 0.06
23910 H 167.42741350601602 153.34661456390614 22.550613530773376 H 0.0 **** 0.06
23911 C 33.70998332304035 154.38718775167467 12.160099995714234 C 0.0 **** -0.24
23912 H 33.83407082574158 153.4729289496173 12.74219925468369 H 0.0 **** 0.06
23913 H 34.02322289807289 155.24230849323885 12.758317203142411 H 0.0 **** 0.06
23914 H 32.663319953197345 154.50059397625603 11.881767235099566 H 0.0 **** 0.06
23915 H 34.32154216058554 154.32913751790534 11.259441718061488 H 0.0 **** 0.06
23916 C 85.70230375731325 86.18456852514954 155.84750016251147 C 0.0 **** -0.24
23917 H 86.65237695671726 85.66113360713722 155.73779975537258 H 0.0 **** 0.06
23918 H 85.71324175040502 87.08912157349319 155.23947178768933 H 0.0 **** 0.06
23919 H 85.55397289809423 86.45187519906996 156.89412305572125 H 0.0 **** 0.06
23920 H 84.89018100101282 85.53564164883916 155.51926715358331 H 0.0 **** 0.06
23921 C 103.65775448331222 166.84644748060902 26.273572622835786 C 0.0 **** -0.24
23922 H 104.43018291991008 166.2631151055324 25.77085992972617 H 0.0 **** 0.06
23923 H 104.12282808215333 167.51592874051588 26.997814831172505 H 0.0 **** 0.06
23924 H 102.97257106350496 166.1736528042432 26.788627329447067 H 0.0 **** 0.06
23925 H 103.10819553544026 167.43271016283438 25.53747590364445 H 0.0 **** 0.06
23926 C 141.55325076484968 43.73281242733461 132.36308126627074 C 0.0 **** -0.24
23927 H 141.7821262926903 42.86865282554041 132.9872763922092 H 0.0 **** 0.06
23928 H 142.3444561977314 43.86779666214906 131.62501649681388 H 0.0 **** 0.06
23929 H 141.48390565972392 44.6229360952772 132.98866218408665 H 0.0 **** 0.06
23930 H 140.60393741100933 43.57106587554614 131.85319740343812 H 0.0 **** 0.06
23931 C 140.7547305547978 51.67603193830388 131.86787322587008 C 0.0 **** -0.24
23932 H 140.90520026650643 52.41735673483825 132.65295142976333 H 0.0 **** 0.06
23933 H 139.80281011680842 51.16790896518465 132.02650147621267 H 0.0 **** 0.06
23934 H 141.56486464099652 50.947244817479245 131.89764676886745 H 0.0 **** 0.06
23935 H 140.74676758731067 52.17140465106476 130.89729771911686 H 0.0 **** 0.06
23936 C 58.83392931359083 136.99602255443762 95.43854777168222 C 0.0 **** -0.24
23937 H 58.25978569237543 136.438282540059 96.17772874892513 H 0.0 **** 0.06
23938 H 58.20799596676352 137.77606590235905 95.00588373573068 H 0.0 **** 0.06
23939 H 59.167264351813685 136.31888225682593 94.65131453804857 H 0.0 **** 0.06
23940 H 59.70165811403885 137.45016955387905 95.9185223871362 H 0.0 **** 0.06
23941 C 123.60483490793149 59.70090218511908 4.665290032201597 C 0.0 **** -0.24
23942 H 123.52435750263498 58.97481412251213 3.8565169687317393 H 0.0 **** 0.06
23943 H 122.81007822507553 60.44064114818215 4.570214064696103 H 0.0 **** 0.06
23944 H 124.57346998310953 60.19789602632653 4.610284754136018 H 0.0 **** 0.06
23945 H 123.51294661200467 59.18863698234148 5.6238510922128455 H 0.0 **** 0.06
23946 C 84.09617013774664 36.02132266222296 47.44191316513195 C 0.0 **** -0.24
23947 H 84.19927119158365 35.62449768951632 46.431192869824656 H 0.0 **** 0.06
23948 H 83.44717939770726 35.366091912623574 48.02352219552313 H 0.0 **** 0.06
23949 H 83.6602486259585 37.018843541909916 47.39689240699181 H 0.0 **** 0.06
23950 H 85.0766044428305 36.073480451400314 47.913137581216915 H 0.0 **** 0.06
23951 C 118.44472979744525 124.80685206818582 146.35223288639338 C 0.0 **** -0.24
23952 H 117.53353297971096 125.39629972560739 146.45233869549605 H 0.0 **** 0.06
23953 H 118.20088587616728 123.7470298464501 146.42751482134224 H 0.0 **** 0.06
23954 H 119.14136597391978 125.0770689708507 147.14677380021703 H 0.0 **** 0.06
23955 H 118.90277248962543 125.0078076058271 145.38410215582627 H 0.0 **** 0.06
23956 C 107.25892357632235 30.95242648342142 10.88858983044485 C 0.0 **** -0.24
23957 H 106.60979879023911 31.817300327493598 11.030299542543098 H 0.0 **** 0.06
23958 H 106.6524026233473 30.047647793269903 10.837971234959475 H 0.0 **** 0.06
23959 H 107.9532989486096 30.878980142252374 11.724730850542173 H 0.0 **** 0.06
23960 H 107.81835182624506 31.068241650124662 9.960625807190446 H 0.0 **** 0.06
23961 C 71.5644341588433 90.43346305504916 169.9062034529291 C 0.0 **** -0.24
23962 H 71.1331241512871 89.4363601634518 169.98776223126887 H 0.0 **** 0.06
23963 H 70.88098493315854 91.08063671216367 169.35699787816066 H 0.0 **** 0.06
23964 H 72.5154049307659 90.37488944959985 169.3757705048064 H 0.0 **** 0.06
23965 H 71.72910859464069 90.84120919124435 170.90348163768482 H 0.0 **** 0.06
23966 C 118.22096451192505 46.74238488315832 138.1260737701623 C 0.0 **** -0.24
23967 H 117.9453334654981 47.32659293349421 137.24843498966146 H 0.0 **** 0.06
23968 H 117.57739065322784 47.01800449019471 138.96205995825716 H 0.0 **** 0.06
23969 H 119.26053296657238 46.94289345334721 138.38572182055935 H 0.0 **** 0.06
23970 H 118.09937601444085 45.68140451912352 137.9083692419327 H 0.0 **** 0.06
23971 C 111.8769545249546 100.08281086058179 83.49886596899842 C 0.0 **** -0.24
23972 H 110.94161505814087 100.43385851922267 83.9356828713843 H 0.0 **** 0.06
23973 H 111.7811971825024 99.02949571357237 83.23466698318498 H 0.0 **** 0.06
23974 H 112.68343616034333 100.20465047595258 84.22128262123948 H 0.0 **** 0.06
23975 H 112.0996213972143 100.66432794937748 82.60396501653071 H 0.0 **** 0.06
23976 C 71.35824823883439 172.62821514992214 23.33553598898476 C 0.0 **** -0.24
23977 H 70.66885686876142 173.35921800297808 23.7574621906806 H 0.0 **** 0.06
23978 H 71.94070741520811 172.1728652069072 24.136909882859925 H 0.0 **** 0.06
23979 H 72.03031430734642 173.1239843136683 22.63460552495883 H 0.0 **** 0.06
23980 H 70.79347999225534 171.85621289041126 22.81192952683267 H 0.0 **** 0.06
23981 C 94.97488097679182 44.19463747452255 8.925727414540063 C 0.0 **** -0.24
23982 H 95.92097608778549 44.62371632267792 9.257382014029162 H 0.0 **** 0.06
23983 H 94.91569045083865 43.153728958673526 9.244839188679208 H 0.0 **** 0.06
23984 H 94.91400034765876 44.24686903712592 7.838869665793311 H 0.0 **** 0.06
23985 H 94.14955071216347 44.75685575544972 9.363104749778273 H 0.0 **** 0.06
23986 C 19.486185673624213 106.89960279226246 11.261748826890113 C 0.0 **** -0.24
23987 H 19.659252363952724 105.8380681069864 11.43942100431721 H 0.0 **** 0.06
23988 H 20.202148132160396 107.48639245457925 11.837362427473238 H 0.0 **** 0.06
23989 H 18.47317407152631 107.15913225800016 11.569525235846186 H 0.0 **** 0.06
23990 H 19.610168126857367 107.11481834948403 10.200686639923873 H 0.0 **** 0.06
23991 C 102.56610137411514 31.63114855361553 50.11248078671737 C 0.0 **** -0.24
23992 H 102.36109368976611 30.613306856601397 49.7789623897346 H 0.0 **** 0.06
23993 H 102.9253609683891 32.22367528672699 49.27070231608701 H 0.0 **** 0.06
23994 H 103.32639064689556 31.610869115923364 50.89333693956034 H 0.0 **** 0.06
23995 H 101.65193767353048 32.07456408820566 50.506589583727475 H 0.0 **** 0.06
23996 C 0.8228525593176954 121.73325820611348 149.91836997417084 C 0.0 **** -0.24
23997 H 0.4419607682318585 121.84425228383037 150.93428490934357 H 0.0 **** 0.06
23998 H 1.259511168118479 122.67577602205694 149.5901082551112 H 0.0 **** 0.06
23999 H 0.005028438063447993 121.4589077564678 149.25196476476316 H 0.0 **** 0.06
24000 H 1.5836376652532849 120.95340271660933 149.90057162833654 H 0.0 **** 0.06
24001 C 135.43397450704504 66.20590616997723 72.00776142562188 C 0.0 **** -0.24
24002 H 135.76878937452386 65.23103298916584 72.36188943032755 H 0.0 **** 0.06
24003 H 134.62386198783747 66.07349632770124 71.29133440357953 H 0.0 **** 0.06
24004 H 136.26491492156305 66.72216374095649 71.52576812609311 H 0.0 **** 0.06
24005 H 135.07966223786303 66.79702972419858 72.85252301017943 H 0.0 **** 0.06
24006 C 105.26106973885152 183.4775816573668 145.9769919024351 C 0.0 **** -0.24
24007 H 105.15739965982283 182.65050435037344 145.27347570030508 H 0.0 **** 0.06
24008 H 105.26674109991984 184.419851591085 145.43006453567727 H 0.0 **** 0.06
24009 H 106.19545522221478 183.3700753141846 146.52815478724926 H 0.0 **** 0.06
24010 H 104.42369240397369 183.46638128146412 146.6754538844798 H 0.0 **** 0.06
24011 C 180.30557597679945 8.381820274893677 147.01197378194107 C 0.0 **** -0.24
24012 H 180.40929582458838 9.364772686284809 147.47008084534053 H 0.0 **** 0.06
24013 H 179.73568748065748 8.471230117225247 146.08626519666288 H 0.0 **** 0.06
24014 H 179.7829613545811 7.714727762621337 147.69778272697462 H 0.0 **** 0.06
24015 H 181.29323433603543 7.976838877979404 146.79295921484243 H 0.0 **** 0.06
24016 C 114.60017813867692 149.74041728413764 7.143939246063944 C 0.0 **** -0.24
24017 H 115.23663093869895 148.91633076970967 7.4665142247063585 H 0.0 **** 0.06
24018 H 114.15623210102332 150.2188238572352 8.017414746530555 H 0.0 **** 0.06
24019 H 113.81110498933158 149.35939531316103 6.497252200933751 H 0.0 **** 0.06
24020 H 115.19929162961485 150.46818789382309 6.59574644001902 H 0.0 **** 0.06
24021 C 149.4041906557735 107.31814301412597 161.41302309842212 C 0.0 **** -0.24
24022 H 148.9844520915849 107.88975783331587 162.24115015067298 H 0.0 **** 0.06
24023 H 149.61486677977356 107.98939085978712 160.57919079130406 H 0.0 **** 0.06
24024 H 148.6883732784079 106.55961780832614 161.09707318984204 H 0.0 **** 0.06
24025 H 150.3266643881663 106.83663655832221 161.73423495518261 H 0.0 **** 0.06
24026 C 35.052894399607 40.85527182831666 114.41636995789732 C 0.0 **** -0.24
24027 H 34.40786359261614 40.07920641750758 114.82685268368381 H 0.0 **** 0.06
24028 H 34.44836419994638 41.57658977862263 113.86647722618979 H 0.0 **** 0.06
24029 H 35.781363965910174 40.40371637637966 113.74255830755523 H 0.0 **** 0.06
24030 H 35.57380973613411 41.36156129385171 115.2286073218565 H 0.0 **** 0.06
24031 C 165.97323710184708 72.89660786835378 8.83234618582324 C 0.0 **** -0.24
24032 H 166.6589565209249 72.05790075707603 8.952257073447136 H 0.0 **** 0.06
24033 H 165.39054898152173 73.0232710115933 9.744490556417432 H 0.0 **** 0.06
24034 H 165.30138735316746 72.6983240621293 7.995980319339594 H 0.0 **** 0.06
24035 H 166.5416080886191 73.80524944664182 8.633501347820157 H 0.0 **** 0.06
24036 C 118.37234385380943 118.14126498556912 23.91763205388473 C 0.0 **** -0.24
24037 H 117.58940716225591 118.24264719226231 24.670085495520823 H 0.0 **** 0.06
24038 H 118.14943705792321 118.79276925684216 23.072285897431755 H 0.0 **** 0.06
24039 H 118.41616776785138 117.10663339373774 23.577566920242546 H 0.0 **** 0.06
24040 H 119.33117688518355 118.42185613810402 24.3521756731937 H 0.0 **** 0.06
24041 C 42.35841362835842 112.1543169105566 122.46559548056483 C 0.0 **** -0.24
24042 H 42.12779614884613 111.0960478074032 122.58753170905023 H 0.0 **** 0.06
24043 H 41.61157038422168 112.75124538380605 122.98982915931272 H 0.0 **** 0.06
24044 H 42.34750296661359 112.40738767443959 121.40511515261706 H 0.0 **** 0.06
24045 H 43.34511803801284 112.36107683627095 122.87893563304628 H 0.0 **** 0.06
24046 C 170.16255082208426 97.80647433485439 59.37251244001445 C 0.0 **** -0.24
24047 H 170.97834113008875 97.17210979346811 59.71760683077662 H 0.0 **** 0.06
24048 H 169.27126659176992 97.60850033127736 59.96934501255852 H 0.0 **** 0.06
24049 H 169.95263085337376 97.59234882009832 58.32502868831624 H 0.0 **** 0.06
24050 H 170.4469089576671 98.85400521417847 59.47972675667532 H 0.0 **** 0.06
24051 C 168.42226222226418 65.39286225138702 164.86884399026854 C 0.0 **** -0.24
24052 H 168.60166873734 65.10575544563416 165.90458108506027 H 0.0 **** 0.06
24053 H 169.35956285836687 65.3499743353836 164.31334103930084 H 0.0 **** 0.06
24054 H 168.02601675667364 66.40747016918051 164.83635318576168 H 0.0 **** 0.06
24055 H 167.70257668838184 64.70707099036446 164.42119965019307 H 0.0 **** 0.06
24056 C 57.379504408666676 119.03846702042097 48.55403170031549 C 0.0 **** -0.24
24057 H 58.293908850931345 119.00462884222009 47.96217458591424 H 0.0 **** 0.06
24058 H 57.063626748794576 118.02185556365129 48.792094420802684 H 0.0 **** 0.06
24059 H 56.59666553184928 119.53877031309628 47.98329945957924 H 0.0 **** 0.06
24060 H 57.56360228598311 119.5874824123689 49.476641257524165 H 0.0 **** 0.06
24061 C 69.75066079797992 103.32187819619959 11.463417583199792 C 0.0 **** -0.24
24062 H 69.19530812805641 104.21870344597353 11.186753029807939 H 0.0 **** 0.06
24063 H 69.84478409257787 102.67135367553293 10.59407357235495 H 0.0 **** 0.06
24064 H 69.21937669562209 102.79627162058988 12.25677392776349 H 0.0 **** 0.06
24065 H 70.74315273464902 103.60482752877881 11.815218397444397 H 0.0 **** 0.06
24066 C 66.25854631730847 146.3817823702642 78.40479015732849 C 0.0 **** -0.24
24067 H 65.27924634734765 146.28853382944564 78.87428738086778 H 0.0 **** 0.06
24068 H 66.24018807708354 147.1991795096596 77.68412362684775 H 0.0 **** 0.06
24069 H 66.506103638417 145.4512736273485 77.89385746376216 H 0.0 **** 0.06
24070 H 67.00892419689984 146.58678628470273 79.16891306481163 H 0.0 **** 0.06
24071 C 73.08984062412554 108.91334514887109 155.3345404796138 C 0.0 **** -0.24
24072 H 72.53627883643651 108.21846432182201 155.96583228190963 H 0.0 **** 0.06
24073 H 74.13895986050346 108.91554468011844 155.6311671246158 H 0.0 **** 0.06
24074 H 72.67746472355884 109.91541984872703 155.4491343577795 H 0.0 **** 0.06
24075 H 73.00664097248972 108.60241707546834 154.2936543724099 H 0.0 **** 0.06
24076 C 123.78619833351588 179.60946281356343 152.1088372611328 C 0.0 **** -0.24
24077 H 122.99452058725844 180.06430302506115 151.5140927169557 H 0.0 **** 0.06
24078 H 123.34338485273817 178.990594717475 152.89051616808234 H 0.0 **** 0.06
24079 H 124.39349507304526 180.39173491905586 152.56492431747597 H 0.0 **** 0.06
24080 H 124.41299185629718 178.99053598514956 151.4669877309638 H 0.0 **** 0.06
24081 C 99.24463174612428 117.11224772683823 81.20848352023347 C 0.0 **** -0.24
24082 H 98.92150753722463 117.12909012899911 82.2500541987888 H 0.0 **** 0.06
24083 H 98.82059864411671 116.23925067255249 80.71082955255935 H 0.0 **** 0.06
24084 H 100.332659419206 117.06191809569185 81.1674704489584 H 0.0 **** 0.06
24085 H 98.90395849563511 118.01801587363951 80.70768900819951 H 0.0 **** 0.06
24086 C 3.7856707593962824 142.85755914294612 179.55648375919088 C 0.0 **** -0.24
24087 H 4.357984988611122 143.46089585585793 180.2623595553167 H 0.0 **** 0.06
24088 H 2.7237363118151166 142.93244007992368 179.79282136489292 H 0.0 **** 0.06
24089 H 4.101236372059702 141.817560368427 179.62817903285577 H 0.0 **** 0.06
24090 H 3.9593753666414955 143.22126717018426 178.54365428293477 H 0.0 **** 0.06
24091 C 62.89900936397265 128.68587085072386 2.313454423162568 C 0.0 **** -0.24
24092 H 63.1736097458691 128.25525205874123 3.2757373430710004 H 0.0 **** 0.06
24093 H 62.23902238660827 127.99915095536615 1.7831108115383927 H 0.0 **** 0.06
24094 H 63.79911445583264 128.85436709316735 1.7213579536414159 H 0.0 **** 0.06
24095 H 62.38627151720229 129.63435994945308 2.4726357272697896 H 0.0 **** 0.06
24096 C 40.300015591025215 169.243695209831 121.281407157875 C 0.0 **** -0.24
24097 H 39.327596159705266 169.3292114601103 120.7943323848943 H 0.0 **** 0.06
24098 H 40.85983302407418 168.42228856526793 120.83257426573975 H 0.0 **** 0.06
24099 H 40.15702835134509 169.04935237821525 122.34381049323359 H 0.0 **** 0.06
24100 H 40.85307009375725 170.174130566828 121.15216656388138 H 0.0 **** 0.06
24101 C 182.83015733368404 125.29155973925477 45.98936951278989 C 0.0 **** -0.24
24102 H 183.19281218344443 124.8402016536581 46.91274359506076 H 0.0 **** 0.06
24103 H 182.26496600543527 124.55223763682632 45.42156235979678 H 0.0 **** 0.06
24104 H 183.67674964600124 125.63647278637409 45.39609824363106 H 0.0 **** 0.06
24105 H 182.18410598373072 126.13723997045265 46.22717613149928 H 0.0 **** 0.06
24106 C 115.41848468342666 103.14072779759228 67.63264566083154 C 0.0 **** -0.24
24107 H 115.58227466108694 104.14057852142052 68.03383354840477 H 0.0 **** 0.06
24108 H 114.38710531601718 103.0505482022135 67.29047665964765 H 0.0 **** 0.06
24109 H 115.6098121949578 102.40088689606877 68.40992269489735 H 0.0 **** 0.06
24110 H 116.09571198080737 102.97023916380356 66.79444328035368 H 0.0 **** 0.06
24111 C 146.4092886735702 69.43952933525065 117.5414349065742 C 0.0 **** -0.24
24112 H 146.6692820622588 68.92376617184296 116.61660887951068 H 0.0 **** 0.06
24113 H 145.76919735357666 70.29157352431143 117.3145557710151 H 0.0 **** 0.06
24114 H 147.31870570924514 69.78801279634386 118.03039633907893 H 0.0 **** 0.06
24115 H 145.88062570389673 68.7529890607791 118.20298859938607 H 0.0 **** 0.06
24116 C 115.97093301475188 90.2973947343039 71.68261949452021 C 0.0 **** -0.24
24117 H 117.05889497778911 90.25512388104347 71.64553481347578 H 0.0 **** 0.06
24118 H 115.57528258031105 89.29987570112472 71.8772856431182 H 0.0 **** 0.06
24119 H 115.5886910918402 90.66056496469581 70.7290342386688 H 0.0 **** 0.06
24120 H 115.66071161779716 90.97355497754624 72.47995217284898 H 0.0 **** 0.06
24121 C 40.121869008147314 165.78953692246637 166.1224469548976 C 0.0 **** -0.24
24122 H 40.90484269677725 166.30873047399692 165.56968061762177 H 0.0 **** 0.06
24123 H 40.03352860644459 166.22190691036127 167.11914527010345 H 0.0 **** 0.06
24124 H 40.37429564660708 164.7327970213161 166.20532588225268 H 0.0 **** 0.06
24125 H 39.17405804647849 165.89623368242985 165.59417849780374 H 0.0 **** 0.06
24126 C 65.91957986547156 17.138283467384497 96.96418774409226 C 0.0 **** -0.24
24127 H 64.85343003127832 17.04284269083766 97.1709193643935 H 0.0 **** 0.06
24128 H 66.06691769363933 17.80411722691082 96.11433757366329 H 0.0 **** 0.06
24129 H 66.33364228420943 16.157414270581512 96.7337918693449 H 0.0 **** 0.06
24130 H 66.4236953953434 17.54941203113563 97.83974484719464 H 0.0 **** 0.06
24131 C 95.81704371660824 53.17948163721448 151.56261085569696 C 0.0 **** -0.24
24132 H 96.10032603803073 52.43388480758634 152.30539605485137 H 0.0 **** 0.06
24133 H 96.6640907636877 53.837260807208224 151.3670776512835 H 0.0 **** 0.06
24134 H 94.97923167698342 53.76585216060175 151.93834204937238 H 0.0 **** 0.06
24135 H 95.52479682354193 52.67778057533047 150.63950133379393 H 0.0 **** 0.06
24136 C 181.93245998003377 67.46478178560201 69.84814562706345 C 0.0 **** -0.24
24137 H 182.80867084408146 67.43838639494648 70.49669955086853 H 0.0 **** 0.06
24138 H 181.13125309452033 66.87588258739618 70.29672078237269 H 0.0 **** 0.06
24139 H 182.18850277264875 67.04831345941994 68.8742387680984 H 0.0 **** 0.06
24140 H 181.6013302900597 68.49557194294366 69.72716996321503 H 0.0 **** 0.06
24141 C 166.49264773950455 147.43762973158246 82.28183847398294 C 0.0 **** -0.24
24142 H 165.6076654752794 147.60199471781027 82.89633086557326 H 0.0 **** 0.06
24143 H 166.21009686117137 147.4369728925206 81.22965887730841 H 0.0 **** 0.06
24144 H 166.93928666437387 146.47671912992405 82.53967539845493 H 0.0 **** 0.06
24145 H 167.21443781761573 148.23403515744397 82.46443873675878 H 0.0 **** 0.06
24146 C 148.23730816826526 10.626756653588473 55.89639468907937 C 0.0 **** -0.24
24147 H 148.84889249862172 10.128618835468842 55.14420875412601 H 0.0 **** 0.06
24148 H 148.85827618142133 11.31413608982831 56.47219034581471 H 0.0 **** 0.06
24149 H 147.80343579019416 9.882727862802653 56.56381229500212 H 0.0 **** 0.06
24150 H 147.43924031532833 11.183913134396505 55.4052585243506 H 0.0 **** 0.06
24151 C 117.26063571201924 5.348482876267646 173.77293392339084 C 0.0 **** -0.24
24152 H 117.71950455983306 5.351042040240607 172.78434088831375 H 0.0 **** 0.06
24153 H 116.77540380822508 6.308535824519524 173.95105668590708 H 0.0 **** 0.06
24154 H 118.02827374959308 5.182974479153046 174.52874684491155 H 0.0 **** 0.06
24155 H 116.51982467446054 4.550497601725375 173.82750390386718 H 0.0 **** 0.06
24156 C 128.00787460136473 23.078401558727634 27.92581196430592 C 0.0 **** -0.24
24157 H 128.3679406389369 23.50948634402556 26.99229726663873 H 0.0 **** 0.06
24158 H 128.68584925214333 23.347882419890766 28.736056876668613 H 0.0 **** 0.06
24159 H 127.96566008317336 21.99360303175081 27.83222545660493 H 0.0 **** 0.06
24160 H 127.01118857609879 23.463061339018594 28.14294831175772 H 0.0 **** 0.06
24161 C 162.19581432506305 99.62238977539336 159.6290885280487 C 0.0 **** -0.24
24162 H 163.0748862083384 99.70298330925313 160.2676170253451 H 0.0 **** 0.06
24163 H 161.81134297741812 100.61925445586867 159.41229838508323 H 0.0 **** 0.06
24164 H 161.4289427763312 99.03883614432853 160.1376861398951 H 0.0 **** 0.06
24165 H 162.46841233155322 99.12808694528165 158.69657664864877 H 0.0 **** 0.06
24166 C 54.195669249288414 128.40697546901538 74.69444077608716 C 0.0 **** -0.24
24167 H 53.71820469744111 128.84637790458294 75.57001855916587 H 0.0 **** 0.06
24168 H 54.90344148428642 129.119426626973 74.26945348236598 H 0.0 **** 0.06
24169 H 53.4374639616444 128.16059644622533 73.95134355905094 H 0.0 **** 0.06
24170 H 54.725209577665765 127.49968417991055 74.9869812809103 H 0.0 **** 0.06
24171 C 155.0539545663741 24.897290091410866 82.94693149636298 C 0.0 **** -0.24
24172 H 154.01093081329986 25.03738473776565 83.23143512171185 H 0.0 **** 0.06
24173 H 155.69472742908772 25.09686278039561 83.80594502880193 H 0.0 **** 0.06
24174 H 155.30450968436122 25.58458272181778 82.13804252401593 H 0.0 **** 0.06
24175 H 155.20326843525982 23.8717712592142 82.61180344335376 H 0.0 **** 0.06
24176 C 10.91412011887865 45.22259391217716 124.18800148690661 C 0.0 **** -0.24
24177 H 11.698481751571087 45.04334680745043 124.92329575831303 H 0.0 **** 0.06
24178 H 11.365234795147359 45.40962041239487 123.21354009761848 H 0.0 **** 0.06
24179 H 10.324961553601867 46.088496982469394 124.48835360768805 H 0.0 **** 0.06
24180 H 10.267655807218013 44.34668198463078 124.12690671510018 H 0.0 **** 0.06
24181 C 49.60576682575811 108.32080589027431 36.89524811265278 C 0.0 **** -0.24
24182 H 49.32555357715799 109.37001071705275 36.80088639499161 H 0.0 **** 0.06
24183 H 50.6406552260584 108.19047171365408 36.57879690780061 H 0.0 **** 0.06
24184 H 48.95443669253298 107.7135038422217 36.267047004043434 H 0.0 **** 0.06
24185 H 49.50148427410605 108.00890719675645 37.934372125213486 H 0.0 **** 0.06
24186 C 54.56002465532973 160.998300908458 168.3601851391162 C 0.0 **** -0.24
24187 H 53.72461302511027 161.4962382546334 167.86792893317426 H 0.0 **** 0.06
24188 H 55.18936958085189 161.74212400742186 168.84823791452243 H 0.0 **** 0.06
24189 H 55.14590991796149 160.45590388024183 167.6183938771328 H 0.0 **** 0.06
24190 H 54.177508776027935 160.29907850052447 169.1042550340432 H 0.0 **** 0.06
24191 C 155.87347803667654 73.62752783849915 168.32249920567898 C 0.0 **** -0.24
24192 H 156.56845979408564 73.62558278903788 167.48247244992913 H 0.0 **** 0.06
24193 H 156.01402592986167 74.53652983236047 168.90792216757964 H 0.0 **** 0.06
24194 H 156.0620643939781 72.75775214671299 168.9517120409792 H 0.0 **** 0.06
24195 H 154.85066132712183 73.59003863472594 167.94840845909198 H 0.0 **** 0.06
24196 C 149.83610990450057 164.29699951466864 85.72584019338525 C 0.0 **** -0.24
24197 H 149.23535817785753 165.05020357943948 86.2367016130148 H 0.0 **** 0.06
24198 H 150.10518349116177 163.50945175586244 86.42947098190102 H 0.0 **** 0.06
24199 H 150.74248918330233 164.7598018913081 85.33414394385439 H 0.0 **** 0.06
24200 H 149.26181357020005 163.87011701337204 84.90363741259621 H 0.0 **** 0.06
24201 C 133.5516543716421 93.18968944204926 99.09939204691356 C 0.0 **** -0.24
24202 H 134.1580326445996 94.0711440536316 98.89272685180417 H 0.0 **** 0.06
24203 H 132.62314603218277 93.49217701366047 99.5844063917143 H 0.0 **** 0.06
24204 H 134.1011383111811 92.51561557393603 99.75614707902493 H 0.0 **** 0.06
24205 H 133.32300789528534 92.67939049293244 98.16390868123194 H 0.0 **** 0.06
24206 C 115.86479799052164 99.73171129788985 145.36676754899224 C 0.0 **** -0.24
24207 H 116.60777590945885 99.51692669040646 144.59829649405881 H 0.0 **** 0.06
24208 H 116.18482080644314 100.5944665400382 145.95172667006557 H 0.0 **** 0.06
24209 H 115.75831614035424 98.86691192770515 146.02192786278448 H 0.0 **** 0.06
24210 H 114.90683652548468 99.94907334771038 144.89349600505753 H 0.0 **** 0.06
24211 C 110.05651312788206 76.10933271510918 117.75077643546229 C 0.0 **** -0.24
24212 H 110.44513051337316 76.86786315946794 118.43037297708827 H 0.0 **** 0.06
24213 H 109.73503865599474 75.23849572736736 118.32231425071382 H 0.0 **** 0.06
24214 H 110.83878252464604 75.81543469056781 117.05083078841415 H 0.0 **** 0.06
24215 H 109.20874956928992 76.51603146388021 117.19939413581108 H 0.0 **** 0.06
24216 C 29.98055352921523 45.153596736347964 184.52907187448784 C 0.0 **** -0.24
24217 H 30.58779293939631 44.58648249308436 183.82365703644697 H 0.0 **** 0.06
24218 H 29.062938250662796 45.47738775553148 184.03945375577155 H 0.0 **** 0.06
24219 H 30.539246724209022 46.02577684871659 184.86924409532924 H 0.0 **** 0.06
24220 H 29.734113372617514 44.52319025433172 185.38365849315187 H 0.0 **** 0.06
24221 C 100.93337580948547 175.47181936691268 78.80327189201972 C 0.0 **** -0.24
24222 H 100.88842461438621 176.55891059078695 78.87275884740177 H 0.0 **** 0.06
24223 H 101.92269513332876 175.12871596900928 79.10791877976226 H 0.0 **** 0.06
24224 H 100.74381406659869 175.16546987290792 77.77415833411112 H 0.0 **** 0.06
24225 H 100.17942047019879 175.03413322318818 79.45674379119328 H 0.0 **** 0.06
24226 C 115.36337055092541 1.4984865939102505 23.20460168544895 C 0.0 **** -0.24
24227 H 116.31199236912151 1.2515067060969542 23.68033261995396 H 0.0 **** 0.06
24228 H 114.546600933791 1.3039773697253594 23.90110219932606 H 0.0 **** 0.06
24229 H 115.23379490793529 0.8872396054898175 22.311117130144225 H 0.0 **** 0.06
24230 H 115.36015043388745 2.553069959304139 22.92668991641247 H 0.0 **** 0.06
24231 C 177.57062448426512 161.9887764487539 104.08247584910005 C 0.0 **** -0.24
24232 H 178.4645627253054 162.14884389450592 103.47991449085491 H 0.0 **** 0.06
24233 H 177.4303697181609 162.83637315755863 104.75456723050259 H 0.0 **** 0.06
24234 H 177.68652407707816 161.07665800035687 104.66737290735689 H 0.0 **** 0.06
24235 H 176.70396177260537 161.894847904751 103.42973893125189 H 0.0 **** 0.06
24236 C 149.10522282061376 1.2288508702228071 15.496159618947516 C 0.0 **** -0.24
24237 H 150.04297902290529 1.4685121006457464 15.997632617018532 H 0.0 **** 0.06
24238 H 149.31699783012283 0.7963876070184384 14.518197841062367 H 0.0 **** 0.06
24239 H 148.51789040752345 2.1388205077156925 15.371872583301837 H 0.0 **** 0.06
24240 H 148.5440861420992 0.5142255003221976 16.097575075381947 H 0.0 **** 0.06
24241 C 58.07060307825104 158.32350024350706 16.78028762387411 C 0.0 **** -0.24
24242 H 58.46493548857285 157.38042636317908 16.40150539611072 H 0.0 **** 0.06
24243 H 58.71217431762162 159.1422878257079 16.45455674739096 H 0.0 **** 0.06
24244 H 58.042578637642094 158.29381045376397 17.869175814465663 H 0.0 **** 0.06
24245 H 57.062132399092434 158.4754632329143 16.394648517742723 H 0.0 **** 0.06
24246 C 65.9147508756265 115.23940969698464 44.68277519195607 C 0.0 **** -0.24
24247 H 65.31951462070586 114.40076853940548 45.045451630391256 H 0.0 **** 0.06
24248 H 66.78742015413827 115.36844893673344 45.3242209079439 H 0.0 **** 0.06
24249 H 65.31123143026957 116.14699690010417 44.70121741758669 H 0.0 **** 0.06
24250 H 66.24057007284998 115.03909317987677 43.662080082264 H 0.0 **** 0.06
24251 C 181.0736169742361 109.42624720459092 164.136387620861 C 0.0 **** -0.24
24252 H 182.13075793463005 109.55785685275954 164.3649422728722 H 0.0 **** 0.06
24253 H 180.69964526494874 110.31413238219368 163.6260098690321 H 0.0 **** 0.06
24254 H 180.5170727647968 109.27681860889136 165.06117353182157 H 0.0 **** 0.06
24255 H 180.9466917788498 108.55647842096396 163.49122900532507 H 0.0 **** 0.06
24256 C 79.28375654649223 37.15692913987489 9.945493232226305 C 0.0 **** -0.24
24257 H 80.09826021431543 37.216977652594494 10.667086126427925 H 0.0 **** 0.06
24258 H 79.01638234137386 38.16134562054853 9.6145265043491 H 0.0 **** 0.06
24259 H 78.41907785943002 36.68553747750214 10.412183730909788 H 0.0 **** 0.06
24260 H 79.60193983674753 36.56445320651255 9.087685546658712 H 0.0 **** 0.06
24261 C 97.3036239622125 149.68326532085268 131.60106128668366 C 0.0 **** -0.24
24262 H 96.70905615063339 150.12177912408274 132.4030401808056 H 0.0 **** 0.06
24263 H 97.77988902116869 148.77081508608387 131.9601706462406 H 0.0 **** 0.06
24264 H 98.06898741343934 150.3930831149234 131.28657144510515 H 0.0 **** 0.06
24265 H 96.65629423165285 149.44809243952727 130.75718792025384 H 0.0 **** 0.06
24266 C 172.07843663258816 120.29136651515891 128.52091659729774 C 0.0 **** -0.24
24267 H 172.2546735599672 119.49241629243072 129.2410238435695 H 0.0 **** 0.06
24268 H 172.82297569742082 121.07589184463707 128.6612910490171 H 0.0 **** 0.06
24269 H 171.08169380718866 120.70496861691193 128.67344330929672 H 0.0 **** 0.06
24270 H 172.1565987684614 119.89180815605003 127.50965047547429 H 0.0 **** 0.06
24271 C 162.981229543681 75.26515302240705 137.13674486457353 C 0.0 **** -0.24
24272 H 163.60257428911848 74.5570100894343 136.58834294861504 H 0.0 **** 0.06
24273 H 163.21446069659407 76.28035815444275 136.8115953633877 H 0.0 **** 0.06
24274 H 163.17943971091944 75.17145935457125 138.20436538888407 H 0.0 **** 0.06
24275 H 161.9310423125624 75.05372043946858 136.94196975777328 H 0.0 **** 0.06
24276 C 148.45208254473326 108.77464703872839 22.47177310788277 C 0.0 **** -0.24
24277 H 147.49518284153942 109.19035763099446 22.786228202051547 H 0.0 **** 0.06
24278 H 148.30856044705456 108.16701415948786 21.578441675144234 H 0.0 **** 0.06
24279 H 148.85961392567845 108.155315433576 23.27116094477509 H 0.0 **** 0.06
24280 H 149.14571672823422 109.58676906279341 22.25209420316736 H 0.0 **** 0.06
24281 C 174.35198808977873 51.6024229197034 47.62287669330155 C 0.0 **** -0.24
24282 H 173.44775451896845 51.084927088184145 47.30416357744457 H 0.0 **** 0.06
24283 H 174.0854784510601 52.57339852638768 48.0429093110385 H 0.0 **** 0.06
24284 H 175.0103763791111 51.743831310150796 46.76668579632906 H 0.0 **** 0.06
24285 H 174.86246385196267 51.007530574500635 48.38008667132573 H 0.0 **** 0.06
24286 C 7.475597749207452 91.6151636205483 49.793748582338594 C 0.0 **** -0.24
24287 H 7.077876246019713 90.6204562748134 49.59038121217688 H 0.0 **** 0.06
24288 H 8.509200512307558 91.53187819699603 50.128518967501265 H 0.0 **** 0.06
24289 H 6.87833403463722 92.09213680367615 50.571005301394166 H 0.0 **** 0.06
24290 H 7.434138211033826 92.21479663125153 48.88506178540807 H 0.0 **** 0.06
24291 C 128.5943366006813 72.12399601145813 153.193519960039 C 0.0 **** -0.24
24292 H 128.4110829135102 73.10407594933423 152.75287750891408 H 0.0 **** 0.06
24293 H 127.94234902862199 71.38706513490536 152.72447470243873 H 0.0 **** 0.06
24294 H 128.38817684298454 72.16328298671243 154.26313019341103 H 0.0 **** 0.06
24295 H 129.63513512055607 71.84281025133816 153.0338691990984 H 0.0 **** 0.06
24296 C 117.7333005167409 13.603731369309003 113.67290979876061 C 0.0 **** -0.24
24297 H 116.64316142977374 13.607912264677132 113.69681955421872 H 0.0 **** 0.06
24298 H 118.1078510954314 12.822717484967185 114.33597735553876 H 0.0 **** 0.06
24299 H 118.10807456453743 14.571927623861903 114.00386715469928 H 0.0 **** 0.06
24300 H 118.07300108117785 13.410204967277899 112.65525837003365 H 0.0 **** 0.06
24301 C 16.085550721244594 19.352715763690483 38.71160183591701 C 0.0 **** -0.24
24302 H 16.580446680547354 20.25071737040262 38.34291030322622 H 0.0 **** 0.06
24303 H 16.83149288912793 18.667901723965507 39.11657024018447 H 0.0 **** 0.06
24304 H 15.55447269163502 18.86885583114364 37.892601209356016 H 0.0 **** 0.06
24305 H 15.378092364195133 19.623528940458115 39.495151612111854 H 0.0 **** 0.06
24306 C 116.5677057957971 44.583973777606246 85.76272744637248 C 0.0 **** -0.24
24307 H 116.2297871489656 43.75973277507808 85.13521720577859 H 0.0 **** 0.06
24308 H 116.12407665114095 45.515399505789276 85.40912217191106 H 0.0 **** 0.06
24309 H 117.65462654112518 44.65636343984076 85.71049312219247 H 0.0 **** 0.06
24310 H 116.2640840474731 44.40470918345392 86.79366118761436 H 0.0 **** 0.06
24311 C 129.21893311855388 34.68907221626836 161.99095293262917 C 0.0 **** -0.24
24312 H 129.58823260566936 35.64628614301466 161.623489002682 H 0.0 **** 0.06
24313 H 128.26457640815158 34.83640910324752 162.49636115409078 H 0.0 **** 0.06
24314 H 129.940394229407 34.26655320511645 162.69171534832617 H 0.0 **** 0.06
24315 H 129.085504204867 34.005580599629695 161.15238313844708 H 0.0 **** 0.06
24316 C 23.43006597599026 155.1144040982703 56.57564942090471 C 0.0 **** -0.24
24317 H 22.922758294404446 155.9290481737965 57.0930267726053 H 0.0 **** 0.06
24318 H 24.479722528923986 155.37333709073118 56.43246345859012 H 0.0 **** 0.06
24319 H 22.96008747637609 154.95058379327986 55.60588476789019 H 0.0 **** 0.06
24320 H 23.358187488481462 154.20476413217654 57.172085489903935 H 0.0 **** 0.06
24321 C 108.13632876282988 83.0151102776224 42.30539734645174 C 0.0 **** -0.24
24322 H 107.98940482117963 83.8658016548865 41.63965497250598 H 0.0 **** 0.06
24323 H 109.10646025868955 83.10247506926252 42.79527554928657 H 0.0 **** 0.06
24324 H 108.1025110820065 82.09153737532372 41.72748747282884 H 0.0 **** 0.06
24325 H 107.34785214100314 83.00165241105339 43.057406554102585 H 0.0 **** 0.06
24326 C 38.183767832681326 159.1742484245042 137.1494505643061 C 0.0 **** -0.24
24327 H 37.36017731375108 159.5510399973249 136.54375005466312 H 0.0 **** 0.06
24328 H 38.611076063152154 159.99178804742914 137.73066654910218 H 0.0 **** 0.06
24329 H 38.94971796774939 158.75136193564907 136.49828790679868 H 0.0 **** 0.06
24330 H 37.814661060113224 158.4022941034897 137.82444543225722 H 0.0 **** 0.06
24331 C 177.93075266347378 73.43464153392274 116.47583363520432 C 0.0 **** -0.24
24332 H 177.57114455182918 72.75647334553429 115.70192777596735 H 0.0 **** 0.06
24333 H 178.61250331192016 72.90053623944154 117.13751478602076 H 0.0 **** 0.06
24334 H 177.08441565894304 73.80926541235328 117.05115091789709 H 0.0 **** 0.06
24335 H 178.4539284291623 74.2699333764714 116.01119076178212 H 0.0 **** 0.06
24336 C 166.24732703258553 10.713733416271445 63.36742752037526 C 0.0 **** -0.24
24337 H 167.0511170375762 10.788985986884185 62.634835512584175 H 0.0 **** 0.06
24338 H 165.4445898001083 11.399097726629648 63.0985576282402 H 0.0 **** 0.06
24339 H 166.63143040344215 10.97242079145638 64.35433167674103 H 0.0 **** 0.06
24340 H 165.86514245945705 9.692630595928001 63.38337640849045 H 0.0 **** 0.06
24341 C 160.23125091162936 91.00139318616216 30.040201335578843 C 0.0 **** -0.24
24342 H 159.83724266241518 90.16285492998712 29.464651603694733 H 0.0 **** 0.06
24343 H 161.2270825512941 91.25508284057098 29.67731945600002 H 0.0 **** 0.06
24344 H 160.28781601358546 90.72351192401233 31.092721529890525 H 0.0 **** 0.06
24345 H 159.5718342628524 91.86066770606239 29.926050999140557 H 0.0 **** 0.06
24346 C 23.578647914922385 82.48071423475187 133.1601709897833 C 0.0 **** -0.24
24347 H 23.342503703849502 81.41684074185105 133.18640970705394 H 0.0 **** 0.06
24348 H 22.94313540967505 83.01187588675992 133.8698248179159 H 0.0 **** 0.06
24349 H 23.403413836634627 82.86641176852743 132.1558573964286 H 0.0 **** 0.06
24350 H 24.624327091588725 82.62799293402043 133.42791223762913 H 0.0 **** 0.06
24351 C 9.944890473162161 160.6942272985676 146.25993538453724 C 0.0 **** -0.24
24352 H 10.293700552146504 160.13152186389803 145.3945976115096 H 0.0 **** 0.06
24353 H 10.709209511913599 161.41086661366327 146.55912736596892 H 0.0 **** 0.06
24354 H 9.747789204055891 160.008047245844 147.08396172103522 H 0.0 **** 0.06
24355 H 9.028751566197968 161.22560635007355 146.00254042412234 H 0.0 **** 0.06
24356 C 145.87715382401026 42.58040371704266 94.67473406288237 C 0.0 **** -0.24
24357 H 145.90099685347917 43.66905505226123 94.65110995084028 H 0.0 **** 0.06
24358 H 146.89689041608176 42.19400508442095 94.64463769404612 H 0.0 **** 0.06
24359 H 145.3231276397113 42.20992756154709 93.81162294914934 H 0.0 **** 0.06
24360 H 145.3887447236499 42.247007466133255 95.59012788109713 H 0.0 **** 0.06
24361 C 158.89584924598495 138.8475766618497 121.35888647852101 C 0.0 **** -0.24
24362 H 159.58156253378985 139.4570380867052 121.94831709003864 H 0.0 **** 0.06
24363 H 159.44755206487255 138.03364235024037 120.88785535970669 H 0.0 **** 0.06
24364 H 158.43182657830886 139.46490880298654 120.59009304804641 H 0.0 **** 0.06
24365 H 158.12415960401827 138.43647392583 122.00938935270653 H 0.0 **** 0.06
24366 C 71.02128854899296 12.020638192013763 59.64839106792125 C 0.0 **** -0.24
24367 H 70.73907171063017 11.308539079135699 60.42343355450281 H 0.0 **** 0.06
24368 H 70.24760749697758 12.0480493890432 58.881238141051654 H 0.0 **** 0.06
24369 H 71.96699774224162 11.7150432707258 59.20129351934061 H 0.0 **** 0.06
24370 H 71.1304386050868 13.011570111365472 60.08972039254027 H 0.0 **** 0.06
24371 C 0.7250063399738664 163.9786351704788 49.00980066626602 C 0.0 **** -0.24
24372 H 1.4037421693552545 164.30766137479816 49.797271184726696 H 0.0 **** 0.06
24373 H 1.24185607942011 163.27622873898775 48.35547129299027 H 0.0 **** 0.06
24374 H 0.39617616425372404 164.8412925242406 48.43089795226189 H 0.0 **** 0.06
24375 H -0.14031375563596526 163.4892339461108 49.45727239426196 H 0.0 **** 0.06
24376 C 36.61334380051207 17.8769846142456 87.04682920199575 C 0.0 **** -0.24
24377 H 37.18607804378712 17.037764105938436 86.65158902333879 H 0.0 **** 0.06
24378 H 36.63024876693768 18.69854077404875 86.33044727169771 H 0.0 **** 0.06
24379 H 37.054247988582176 18.206539575921624 87.98811364894622 H 0.0 **** 0.06
24380 H 35.582890007822186 17.56479785774127 87.2181178081476 H 0.0 **** 0.06
24381 C 102.58795439332549 32.70740423120482 32.096870825397474 C 0.0 **** -0.24
24382 H 103.47895898643308 32.22266710922321 31.69553661804241 H 0.0 **** 0.06
24383 H 102.32928838832005 33.56363910444442 31.474876393112595 H 0.0 **** 0.06
24384 H 102.78526297545342 33.04330495433038 33.11442444459453 H 0.0 **** 0.06
24385 H 101.76052287734409 31.998051810823995 32.102123166469084 H 0.0 **** 0.06
24386 C 114.5704796664665 92.68886380529007 169.67425929702165 C 0.0 **** -0.24
24387 H 114.11228585910447 93.1833067060101 170.53035683625166 H 0.0 **** 0.06
24388 H 113.7987423444215 92.18945168588864 169.08762957626854 H 0.0 **** 0.06
24389 H 115.293795952874 91.95255513125248 170.02477527662427 H 0.0 **** 0.06
24390 H 115.07651421075207 93.42971035364762 169.05496631017513 H 0.0 **** 0.06
24391 C 144.68968775475693 154.11325440576877 164.31362465798736 C 0.0 **** -0.24
24392 H 145.55396740188593 154.58145080020327 164.78335453745413 H 0.0 **** 0.06
24393 H 144.01367241023527 153.7420975464913 165.08523158716795 H 0.0 **** 0.06
24394 H 145.0204569867172 153.28240551154795 163.69012068638074 H 0.0 **** 0.06
24395 H 144.16956355091338 154.84632572312975 163.6963073637722 H 0.0 **** 0.06
24396 C 99.83725505350189 112.3219374867847 19.415834822763856 C 0.0 **** -0.24
24397 H 99.1569933432424 113.02153447200821 19.90112897806023 H 0.0 **** 0.06
24398 H 99.28597419198466 111.43499513911662 19.10640631260435 H 0.0 **** 0.06
24399 H 100.62354199253907 112.03720797565843 20.11544566802482 H 0.0 **** 0.06
24400 H 100.28398642921074 112.79687782231859 18.542258768220535 H 0.0 **** 0.06
24401 C 0.1864721682074162 127.71005726188959 0.41919088947010863 C 0.0 **** -0.24
24402 H 0.24105191519524283 128.7688161885688 0.16741136122735156 H 0.0 **** 0.06
24403 H -0.7620764158108955 127.50254276978886 0.915916888557426 H 0.0 **** 0.06
24404 H 1.0106313806454068 127.4527781559109 1.0849464236010746 H 0.0 **** 0.06
24405 H 0.25716675015070223 127.11648815736287 -0.4925406330627311 H 0.0 **** 0.06
24406 C 104.65694520140129 180.7772350250848 45.40618510175828 C 0.0 **** -0.24
24407 H 103.89790903361263 181.4092264841853 45.868165919995675 H 0.0 **** 0.06
24408 H 105.63483179924215 181.25103040945777 45.5076847150649 H 0.0 **** 0.06
24409 H 104.42612950497058 180.64450067366514 44.349242308846826 H 0.0 **** 0.06
24410 H 104.67074801654728 179.80625240258993 45.90080473447345 H 0.0 **** 0.06
24411 C 108.5680099529087 115.16101609322567 136.25994596175508 C 0.0 **** -0.24
24412 H 109.53210363441376 115.38776923852288 135.80417215767346 H 0.0 **** 0.06
24413 H 108.68700859704877 114.34709419367346 136.9754966872099 H 0.0 **** 0.06
24414 H 107.86098701554296 114.86396232275047 135.48545775457694 H 0.0 **** 0.06
24415 H 108.19194056462938 116.0452386179561 136.77465724756013 H 0.0 **** 0.06
24416 C 140.97568965142375 28.760066160899257 51.11427406173897 C 0.0 **** -0.24
24417 H 141.16981267232694 29.70719996505997 50.61028081858939 H 0.0 **** 0.06
24418 H 140.00187867987944 28.80280735094361 51.6034200293542 H 0.0 **** 0.06
24419 H 141.7503622421366 28.579927363720785 51.858978520366634 H 0.0 **** 0.06
24420 H 140.97917442008497 27.952470849660685 50.38175713346476 H 0.0 **** 0.06
24421 C 139.69112890868223 19.038808480208864 160.1549026206672 C 0.0 **** -0.24
24422 H 139.30449953994912 19.827401742980783 160.8011168122718 H 0.0 **** 0.06
24423 H 139.00773851314182 18.189997081403867 160.1701056031702 H 0.0 **** 0.06
24424 H 140.67093791413117 18.724360368195093 160.51391801495382 H 0.0 **** 0.06
24425 H 139.78181455832276 19.415797353798816 159.13630856029152 H 0.0 **** 0.06
24426 C 113.24168227775031 3.1866032517011718 43.96112090858634 C 0.0 **** -0.24
24427 H 112.41362262505736 3.0785338307790084 43.25934771288797 H 0.0 **** 0.06
24428 H 113.25840422055866 2.3302457859542756 44.63611398923064 H 0.0 **** 0.06
24429 H 113.11174317123921 4.102372425745813 44.53844060279408 H 0.0 **** 0.06
24430 H 114.18045541557798 3.23427016701649 43.40971523934547 H 0.0 **** 0.06
24431 C 151.99481771809266 167.29114852536443 78.03916806911377 C 0.0 **** -0.24
24432 H 152.02584356934344 166.5360013313047 77.25287136369809 H 0.0 **** 0.06
24433 H 151.00155148140456 167.30678398710612 78.4881280736414 H 0.0 **** 0.06
24434 H 152.21744046550498 168.2693906400426 77.61281511039908 H 0.0 **** 0.06
24435 H 152.7352628271985 167.05040902772612 78.80172684600888 H 0.0 **** 0.06
24436 C 98.75679527352663 99.26865485432859 57.900111451404456 C 0.0 **** -0.24
24437 H 98.0305822463361 100.08171777541463 57.9186237702844 H 0.0 **** 0.06
24438 H 99.60649457102964 99.55603100456733 57.28112081661263 H 0.0 **** 0.06
24439 H 98.29040613672935 98.37486789029577 57.48500373801474 H 0.0 **** 0.06
24440 H 99.09798427461679 99.06321638686973 58.914436571488494 H 0.0 **** 0.06
24441 C 65.07074142603004 178.27747832012443 180.05617116227984 C 0.0 **** -0.24
24442 H 65.32735001970754 179.31256047044602 180.28209225345876 H 0.0 **** 0.06
24443 H 65.67583600587707 177.92867157153654 179.21824765159084 H 0.0 **** 0.06
24444 H 64.01538681561657 178.21330869530613 179.7942394361738 H 0.0 **** 0.06
24445 H 65.26769031915174 177.65561815632145 180.92984698937553 H 0.0 **** 0.06
24446 C 41.50534771580078 12.47546619769409 165.47083238794747 C 0.0 **** -0.24
24447 H 41.70238212457113 11.530999945006812 165.97896261297262 H 0.0 **** 0.06
24448 H 41.75709578973087 13.303080213752793 166.13390199815765 H 0.0 **** 0.06
24449 H 40.451082430838596 12.530827347351334 165.20288431160566 H 0.0 **** 0.06
24450 H 42.11369092193098 12.534547929861702 164.5676965822744 H 0.0 **** 0.06
24451 C 110.59572441310134 136.8633170806745 176.95540944589652 C 0.0 **** -0.24
24452 H 110.82574403794509 136.30302162252553 176.04906605631456 H 0.0 **** 0.06
24453 H 109.82575424674657 137.60399319768163 176.73977273243824 H 0.0 **** 0.06
24454 H 111.49532853438212 137.36641174073736 177.3095034208722 H 0.0 **** 0.06
24455 H 110.23584777568514 136.17899378759853 177.72377641679898 H 0.0 **** 0.06
24456 C 117.40244523652986 6.908643557059548 39.301212265696506 C 0.0 **** -0.24
24457 H 117.51258351158491 7.513232094492928 38.40103804880033 H 0.0 **** 0.06
24458 H 117.2073874583702 7.559497689632558 40.15415760451771 H 0.0 **** 0.06
24459 H 118.31998895524983 6.346067766274757 39.47486818344072 H 0.0 **** 0.06
24460 H 116.56906718395477 6.215866084635081 39.17413425676713 H 0.0 **** 0.06
24461 C 156.05081019920496 143.99907188092033 101.5115351526674 C 0.0 **** -0.24
24462 H 156.1306171770347 145.05547724530408 101.76721054540504 H 0.0 **** 0.06
24463 H 156.85146829531763 143.73097623683265 100.82030236484833 H 0.0 **** 0.06
24464 H 155.08575842221802 143.8109022537403 101.03998595394647 H 0.0 **** 0.06
24465 H 156.1355458510251 143.39771247245096 102.41652249362456 H 0.0 **** 0.06
24466 C 175.65516479973036 78.53189340748854 28.20562634198859 C 0.0 **** -0.24
24467 H 176.2887257238581 78.03298549852536 28.939998083202056 H 0.0 **** 0.06
24468 H 175.87979054187286 78.1467220670831 27.21160539261291 H 0.0 **** 0.06
24469 H 175.8442703754231 79.60428402227204 28.232436307071453 H 0.0 **** 0.06
24470 H 174.6077441590927 78.34156586101942 28.442059878863972 H 0.0 **** 0.06
24471 C 166.8646426218203 87.82639764294514 155.55379866316414 C 0.0 **** -0.24
24472 H 167.70527897562573 88.47693016676139 155.31234821114384 H 0.0 **** 0.06
24473 H 167.0862751649044 86.81076191307669 155.22591385968445 H 0.0 **** 0.06
24474 H 165.97031951367998 88.18580355922971 155.04528227622038 H 0.0 **** 0.06
24475 H 166.6981972128754 87.83362830492557 156.63101962845215 H 0.0 **** 0.06
24476 C 175.73357666611793 83.6301945994919 22.899993633068092 C 0.0 **** -0.24
24477 H 174.94695339900863 84.37778919135147 22.794667750543695 H 0.0 **** 0.06
24478 H 175.98243467255912 83.51080410278315 23.955276536970942 H 0.0 **** 0.06
24479 H 176.61841106442415 83.95459138120276 22.35238594752842 H 0.0 **** 0.06
24480 H 175.38552269148175 82.67906068715301 22.49901478427816 H 0.0 **** 0.06
24481 C 13.47325796363333 44.230783820090664 95.62154896144175 C 0.0 **** -0.24
24482 H 12.806654744509672 43.66586902831011 94.97043470641391 H 0.0 **** 0.06
24483 H 14.408066651682645 43.68451338065432 95.74684734096287 H 0.0 **** 0.06
24484 H 12.999357289076954 44.369933027366926 96.59303596744327 H 0.0 **** 0.06
24485 H 13.677731165572766 45.20388025061874 95.17403870258327 H 0.0 **** 0.06
24486 C 32.579920467450336 152.6221377191423 16.03339503513181 C 0.0 **** -0.24
24487 H 31.580075678764217 152.38110875184208 16.395989612151936 H 0.0 **** 0.06
24488 H 32.56615759076206 152.6830702842357 14.944834890801808 H 0.0 **** 0.06
24489 H 33.27661099967358 151.8440777408851 16.34545326141385 H 0.0 **** 0.06
24490 H 32.89422961911035 153.5796784905899 16.448651331502163 H 0.0 **** 0.06
24491 C 128.96784217784904 107.40643326246594 81.81196019503409 C 0.0 **** -0.24
24492 H 128.0898057126755 108.0355592851114 81.66897853827322 H 0.0 **** 0.06
24493 H 129.5028538662936 107.72689614819687 82.70686210969967 H 0.0 **** 0.06
24494 H 129.62271961418753 107.49422980094319 80.94529378626993 H 0.0 **** 0.06
24495 H 128.6557400851159 106.36804483655338 81.92767167772973 H 0.0 **** 0.06
24496 C 16.57506147089439 72.7553427357958 93.88817252855051 C 0.0 **** -0.24
24497 H 17.189284634114486 71.8578973435488 93.95232082998126 H 0.0 **** 0.06
24498 H 15.544880813969854 72.51060741993315 94.14707947113806 H 0.0 **** 0.06
24499 H 16.61074574643137 73.14813250003421 92.87167598914982 H 0.0 **** 0.06
24500 H 16.95599800769036 73.50618468010813 94.580939524102 H 0.0 **** 0.06
24501 C 81.79306393635032 41.91685384248382 101.61183130022424 C 0.0 **** -0.24
24502 H 81.90388983134467 42.75205919114529 102.30342511962384 H 0.0 **** 0.06
24503 H 80.77684568719467 41.90558765499668 101.21652138269205 H 0.0 **** 0.06
24504 H 81.99030250762831 40.98245919668025 102.13591995647288 H 0.0 **** 0.06
24505 H 82.50061710466034 42.03014028485961 100.79066806973238 H 0.0 **** 0.06
24506 C 112.816691452862 101.02711744276723 142.27445808870215 C 0.0 **** -0.24
24507 H 113.77017795884306 100.8213735208409 142.7612098652262 H 0.0 **** 0.06
24508 H 112.91096947842225 100.85522252649292 141.20198749800477 H 0.0 **** 0.06
24509 H 112.53409757403232 102.06447963273217 142.45392048528055 H 0.0 **** 0.06
24510 H 112.05043223019273 100.36647367397973 142.68243728647036 H 0.0 **** 0.06
24511 C 28.301262630553765 137.816146152768 121.7538994882936 C 0.0 **** -0.24
24512 H 28.976270731250622 136.97292342068477 121.90647044456836 H 0.0 **** 0.06
24513 H 27.319849273444675 137.5725321922759 122.16039477174638 H 0.0 **** 0.06
24514 H 28.212893522254717 138.02199468530665 120.68761687011539 H 0.0 **** 0.06
24515 H 28.69846192431902 138.69494129411072 122.26167323552517 H 0.0 **** 0.06
24516 C 27.443898006886798 55.65763315754194 69.461527173858 C 0.0 **** -0.24
24517 H 27.565717421409474 56.269218496424884 68.56729131156251 H 0.0 **** 0.06
24518 H 26.776250307959188 54.82323701947283 69.2422806322784 H 0.0 **** 0.06
24519 H 27.01789516625793 56.26371600810276 70.26084845597379 H 0.0 **** 0.06
24520 H 28.414889231261185 55.27358773300054 69.77485372371672 H 0.0 **** 0.06
24521 C 83.39629503181897 32.33491251120326 171.11777500445547 C 0.0 **** -0.24
24522 H 84.02612090392392 31.66662524891808 170.53046769819093 H 0.0 **** 0.06
24523 H 83.69762261367396 32.29188344236488 172.16463151904975 H 0.0 **** 0.06
24524 H 82.35469901363035 32.02533012479638 171.0264575972146 H 0.0 **** 0.06
24525 H 83.50536012651474 33.35489926353493 170.74841581877294 H 0.0 **** 0.06
24526 C 72.65549336642557 73.55311870035968 13.891781136361196 C 0.0 **** -0.24
24527 H 71.84108363791488 73.84422631029071 14.554872010030323 H 0.0 **** 0.06
24528 H 73.05162185009837 74.43895416149218 13.393223040588374 H 0.0 **** 0.06
24529 H 72.28289424353487 72.85159012306269 13.146108363054374 H 0.0 **** 0.06
24530 H 73.44569772714372 73.07996722317267 14.473570684519665 H 0.0 **** 0.06
24531 C 25.99555969428266 10.426007494706255 178.97979800843257 C 0.0 **** -0.24
24532 H 26.474221257975444 11.191244091388057 178.3694354926963 H 0.0 **** 0.06
24533 H 26.679650979035557 9.588967322574888 179.1158208127643 H 0.0 **** 0.06
24534 H 25.089929398500885 10.078581672308587 178.48149643805306 H 0.0 **** 0.06
24535 H 25.736681717911324 10.84642309774864 179.9517240780677 H 0.0 **** 0.06
24536 C 95.21109464950608 103.21045148498693 62.1283188786189 C 0.0 **** -0.24
24537 H 95.80320780109768 103.17709379646261 61.21413310573351 H 0.0 **** 0.06
24538 H 95.72609170505648 102.65903323053779 62.91462879935162 H 0.0 **** 0.06
24539 H 94.23554792280505 102.75887477347023 61.94505554907147 H 0.0 **** 0.06
24540 H 95.07882211265753 104.24706905555367 62.437128423700756 H 0.0 **** 0.06
24541 C 9.534799698263363 81.05547600797854 124.3396622187385 C 0.0 **** -0.24
24542 H 8.55711707101154 80.57860788494338 124.26094836706916 H 0.0 **** 0.06
24543 H 9.826839110257104 81.44694527566003 123.36448059851055 H 0.0 **** 0.06
24544 H 10.270227602865418 80.32360903918243 124.67317067542847 H 0.0 **** 0.06
24545 H 9.482930345743256 81.8724176708418 125.05930813848896 H 0.0 **** 0.06
24546 C 146.36880888220648 9.575397374193471 35.54043194772345 C 0.0 **** -0.24
24547 H 147.350020997329 9.272893614262046 35.90651066666641 H 0.0 **** 0.06
24548 H 146.05423686712032 10.484344318631884 36.05263039320218 H 0.0 **** 0.06
24549 H 145.6487660528406 8.780500065086812 35.73490805453804 H 0.0 **** 0.06
24550 H 146.42326547414473 9.761893770646822 34.46744035384347 H 0.0 **** 0.06
24551 C 32.887925252028495 123.61861991335219 8.273669669543366 C 0.0 **** -0.24
24552 H 32.764509689757375 124.18941915323695 7.35372175182912 H 0.0 **** 0.06
24553 H 31.929746455823278 123.18627219551924 8.56318517362623 H 0.0 **** 0.06
24554 H 33.243789017918616 124.27672427870577 9.065251594653333 H 0.0 **** 0.06
24555 H 33.61196878937612 122.82030882020184 8.110501905215067 H 0.0 **** 0.06
24556 C 119.26834976560171 1.5650829856508963 91.9381335262463 C 0.0 **** -0.24
24557 H 119.28350116275995 2.168131078038023 92.84515820027309 H 0.0 **** 0.06
24558 H 120.2915274120822 1.340788314181907 91.6337163601413 H 0.0 **** 0.06
24559 H 118.76632904693749 2.117471829630958 91.14351843835806 H 0.0 **** 0.06
24560 H 118.7339060410789 0.6348253475768999 92.128821693909 H 0.0 **** 0.06
24561 C 29.95916713297038 151.28413053543488 49.918048082111085 C 0.0 **** -0.24
24562 H 30.591946518844907 151.7641588774023 49.17201766346149 H 0.0 **** 0.06
24563 H 29.54309797226813 152.0424389250283 50.58299188215334 H 0.0 **** 0.06
24564 H 30.55353429477816 150.57822788305333 50.49796918022997 H 0.0 **** 0.06
24565 H 29.14835975186591 150.75308107743246 49.41931345476365 H 0.0 **** 0.06
24566 C 87.93623122478594 98.46729115489399 168.57153726105992 C 0.0 **** -0.24
24567 H 88.02839606785939 98.9318743052122 169.55318205313722 H 0.0 **** 0.06
24568 H 87.02194606837371 98.81445908381306 168.09008897888287 H 0.0 **** 0.06
24569 H 87.8991523564733 97.38421666072333 168.6847368171649 H 0.0 **** 0.06
24570 H 88.79599622106609 98.7405271816856 167.9591520824177 H 0.0 **** 0.06
24571 C 35.01890308863614 134.61508425223622 107.52899747987486 C 0.0 **** -0.24
24572 H 34.45856828445528 134.21634310315238 108.37461545799734 H 0.0 **** 0.06
24573 H 36.06425697136075 134.3176587630229 107.61469294670651 H 0.0 **** 0.06
24574 H 34.94929396927944 135.70232788045763 107.52580400971065 H 0.0 **** 0.06
24575 H 34.6032070802969 134.22179287130263 106.6009990448522 H 0.0 **** 0.06
24576 C 104.0070520817876 176.6122377288504 112.76396626821888 C 0.0 **** -0.24
24577 H 103.14204435740191 177.21555978322726 112.48742781937814 H 0.0 **** 0.06
24578 H 103.72183836332027 175.5600148867654 112.79210198400209 H 0.0 **** 0.06
24579 H 104.36417508743136 176.91861124043623 113.7468730688682 H 0.0 **** 0.06
24580 H 104.79878880738602 176.75472384267823 112.02908260006747 H 0.0 **** 0.06
24581 C 27.120517792419236 67.98453047764212 112.18286218522826 C 0.0 **** -0.24
24582 H 27.300518231020376 69.0595019632444 112.15369837079248 H 0.0 **** 0.06
24583 H 28.053574515062934 67.45504412285035 111.99011178789146 H 0.0 **** 0.06
24584 H 26.386403474841487 67.7183814121837 111.42172144171877 H 0.0 **** 0.06
24585 H 26.74092133655516 67.7072911710287 113.16633728032338 H 0.0 **** 0.06
24586 C 36.92261867715763 112.72092468329093 99.01544923404369 C 0.0 **** -0.24
24587 H 36.647688832064944 111.88394152136316 99.65848513329315 H 0.0 **** 0.06
24588 H 36.717031079398936 112.46334008049432 97.97697234490273 H 0.0 **** 0.06
24589 H 37.98496790905011 112.93503417346015 99.13439716671532 H 0.0 **** 0.06
24590 H 36.341914088220705 113.60002027849505 99.29492101943019 H 0.0 **** 0.06
24591 C 38.928213455142625 77.68234189653919 84.72961225428173 C 0.0 **** -0.24
24592 H 39.624016439239114 77.34923088407726 83.95867862739033 H 0.0 **** 0.06
24593 H 37.94876005984628 77.23934417342599 84.54966108471055 H 0.0 **** 0.06
24594 H 38.845954641250756 78.76883020828268 84.69982971897318 H 0.0 **** 0.06
24595 H 39.29403435827054 77.37148347763468 85.70749335085388 H 0.0 **** 0.06
24596 C 174.21513349414792 177.86001469982077 179.5430386393842 C 0.0 **** -0.24
24597 H 174.03159714994334 176.78689815941993 179.59775306307552 H 0.0 **** 0.06
24598 H 175.2090603665838 178.03730037612934 179.1332405140564 H 0.0 **** 0.06
24599 H 174.1514096497898 178.2900265996815 180.5423450929139 H 0.0 **** 0.06
24600 H 173.4679823165507 178.32369796094954 178.89836404496984 H 0.0 **** 0.06
24601 C 138.58976113555622 32.8698441636047 100.05322330781839 C 0.0 **** -0.24
24602 H 139.34132128148912 33.47047928108792 100.56624297900446 H 0.0 **** 0.06
24603 H 138.5853124210094 31.86238524975701 100.46869063122524 H 0.0 **** 0.06
24604 H 138.82631956602057 32.824720550088585 98.99003831072882 H 0.0 **** 0.06
24605 H 137.60834763576634 33.32378097422688 100.18889668823722 H 0.0 **** 0.06
24606 C 65.20143034592235 29.698632931750524 120.2199874277665 C 0.0 **** -0.24
24607 H 65.7766961347396 30.581445528730455 119.93918575457884 H 0.0 **** 0.06
24608 H 64.54829147720577 29.94237410134744 121.05794579512424 H 0.0 **** 0.06
24609 H 65.88217176837509 28.89886833478195 120.5100668058446 H 0.0 **** 0.06
24610 H 64.59924027571802 29.37328474735216 119.37118175944885 H 0.0 **** 0.06
24611 C 74.09690925711382 164.26635695061043 62.61410461648009 C 0.0 **** -0.24
24612 H 74.10854519953159 163.76719087556603 61.645098836389025 H 0.0 **** 0.06
24613 H 74.84988075357099 163.8190983712438 63.2633996680529 H 0.0 **** 0.06
24614 H 73.11199984481917 164.15293118444293 63.06879511204289 H 0.0 **** 0.06
24615 H 74.31444128162369 165.32567434940725 62.48014636461062 H 0.0 **** 0.06
24616 C 163.70241487731036 4.65889524260524 40.89189146476565 C 0.0 **** -0.24
24617 H 163.84481284332225 5.468132767925567 40.17497526669524 H 0.0 **** 0.06
24618 H 162.63612337144508 4.469071182822944 41.017631799768424 H 0.0 **** 0.06
24619 H 164.13714040814676 4.942119136222431 41.85003304134716 H 0.0 **** 0.06
24620 H 164.19075606288825 3.7572317297631344 40.52309051014123 H 0.0 **** 0.06
24621 C 109.67178511732668 93.25130264473091 130.661754558582 C 0.0 **** -0.24
24622 H 109.05761393813306 93.96617561956111 131.2096466683676 H 0.0 **** 0.06
24623 H 109.45566723583876 93.32851019683909 129.59673512704023 H 0.0 **** 0.06
24624 H 109.44861718256307 92.24141314739364 131.00734197766553 H 0.0 **** 0.06
24625 H 110.7252258549379 93.46991697689288 130.8361843315888 H 0.0 **** 0.06
24626 C 109.60321912020923 56.222363666031185 150.1594103327272 C 0.0 **** -0.24
24627 H 109.95898114268338 57.21221094857677 150.4460304891009 H 0.0 **** 0.06
24628 H 110.20257140964473 55.462102979224255 150.65988598090127 H 0.0 **** 0.06
24629 H 109.69298896684084 56.10346736214353 149.07908055133208 H 0.0 **** 0.06
24630 H 108.55852491164997 56.11336016152586 150.4511887028179 H 0.0 **** 0.06
24631 C 89.90340627495357 17.26816926022829 38.34567864336418 C 0.0 **** -0.24
24632 H 89.75355254791214 18.083443161129082 37.638779316095565 H 0.0 **** 0.06
24633 H 90.47638465104734 17.629463609911397 39.20043215738974 H 0.0 **** 0.06
24634 H 90.44760959718371 16.45904972418714 37.858759061450314 H 0.0 **** 0.06
24635 H 88.93480499445309 16.900448540528657 38.68656195502206 H 0.0 **** 0.06
24636 C 177.3549328105002 124.08067852096 97.35814339924111 C 0.0 **** -0.24
24637 H 178.0092189541295 123.74880773730054 96.55150233401419 H 0.0 **** 0.06
24638 H 176.61160224755946 124.77257600747113 96.96088160931684 H 0.0 **** 0.06
24639 H 177.94709853617735 124.58176125637566 98.12300886174917 H 0.0 **** 0.06
24640 H 176.85128845329842 123.21839694914372 97.79446919766666 H 0.0 **** 0.06
24641 C 21.01376313107116 23.50535828154196 142.0178624102536 C 0.0 **** -0.24
24642 H 21.556924317393495 23.623857515475038 141.08006966619143 H 0.0 **** 0.06
24643 H 21.4493524675037 24.157348933452397 142.7747134338644 H 0.0 **** 0.06
24644 H 21.08231964025989 22.468696210232565 142.34862990384926 H 0.0 **** 0.06
24645 H 19.966678962830542 23.770558293277304 141.86810898849376 H 0.0 **** 0.06
24646 C 42.58827572858988 164.23108712456983 141.0774340505714 C 0.0 **** -0.24
24647 H 42.74004077987587 165.29210356978362 140.87940922143997 H 0.0 **** 0.06
24648 H 42.794008028719304 164.0251301372687 142.12836284469063 H 0.0 **** 0.06
24649 H 43.262156131869006 163.64507625028517 140.4535784692501 H 0.0 **** 0.06
24650 H 41.5568417470696 163.96209908786227 140.85038398406556 H 0.0 **** 0.06
24651 C 94.0681387273956 85.99903883653236 159.12099898440042 C 0.0 **** -0.24
24652 H 95.02176026433416 85.50319670113483 159.30623920813363 H 0.0 **** 0.06
24653 H 93.36300745807925 85.28210626134272 158.69790089755514 H 0.0 **** 0.06
24654 H 94.21609178137278 86.81993730199032 158.4202173238695 H 0.0 **** 0.06
24655 H 93.67250619043342 86.38757357167775 160.05921751412362 H 0.0 **** 0.06
24656 C 146.8324384301016 46.99356295518791 111.30273808884363 C 0.0 **** -0.24
24657 H 146.5036972007964 47.81259942934162 111.94290434558405 H 0.0 **** 0.06
24658 H 147.55989673617245 47.36653769576208 110.58173765877143 H 0.0 **** 0.06
24659 H 145.97418370045114 46.57995587378986 110.77272075276795 H 0.0 **** 0.06
24660 H 147.28997389807353 46.21640156563774 111.91425817267634 H 0.0 **** 0.06
24661 C 127.88244795985433 140.64804979451094 131.2628843054057 C 0.0 **** -0.24
24662 H 126.81894466182528 140.4065553321501 131.2690935699576 H 0.0 **** 0.06
24663 H 128.04618898665058 141.54660426859056 130.66656464394129 H 0.0 **** 0.06
24664 H 128.43962048950266 139.81799494697253 130.82988885944144 H 0.0 **** 0.06
24665 H 128.22114100572662 140.82111535116286 132.28357948859934 H 0.0 **** 0.06
24666 C 130.74269599400378 59.9631989197148 75.2419286090713 C 0.0 **** -0.24
24667 H 130.08534326958198 60.74381264869382 75.6236771425472 H 0.0 **** 0.06
24668 H 131.5070798793301 60.411063444066144 74.60676405418809 H 0.0 **** 0.06
24669 H 130.15902155949163 59.2487719346167 74.6601549105597 H 0.0 **** 0.06
24670 H 131.2191101587481 59.44834123917899 76.07657313816105 H 0.0 **** 0.06
24671 C 135.21515329979513 104.20423331971637 71.26002486022594 C 0.0 **** -0.24
24672 H 135.8813485782975 103.38277585659705 70.99513268013322 H 0.0 **** 0.06
24673 H 135.498763340695 104.60166787894741 72.2340281731453 H 0.0 **** 0.06
24674 H 134.18842145970342 103.8399293767672 71.30007156714572 H 0.0 **** 0.06
24675 H 135.29313941011657 104.99135509481061 70.50901628543738 H 0.0 **** 0.06
24676 C 39.59627660109436 154.66630315453324 99.44094625722643 C 0.0 **** -0.24
24677 H 40.04300922103255 153.8097433661985 98.93532319731587 H 0.0 **** 0.06
24678 H 39.94820947503126 154.70328188772172 100.47219705290767 H 0.0 **** 0.06
24679 H 38.51075166184364 154.568353300111 99.43027879399058 H 0.0 **** 0.06
24680 H 39.88349947718666 155.58275624865115 98.92467972816463 H 0.0 **** 0.06
24681 C 15.779214473321744 116.0502890978774 148.03225303875354 C 0.0 **** -0.24
24682 H 15.769628309279966 115.05225611726223 148.46823880961958 H 0.0 **** 0.06
24683 H 15.66376781519844 116.79257645720696 148.8219320265819 H 0.0 **** 0.06
24684 H 14.958515050572373 116.144249055295 147.3214729501686 H 0.0 **** 0.06
24685 H 16.72603987173411 116.21233204133563 147.51650879196214 H 0.0 **** 0.06
24686 C 117.38237411243138 93.98248117071336 20.515595907001426 C 0.0 **** -0.24
24687 H 116.89989429704958 94.49532272335381 21.347228707979923 H 0.0 **** 0.06
24688 H 116.8987857073359 94.27033010791217 19.58166891434948 H 0.0 **** 0.06
24689 H 117.29471744782786 92.9051854987921 20.652930109308585 H 0.0 **** 0.06
24690 H 118.43609798036364 94.25955690411212 20.47967351031923 H 0.0 **** 0.06
24691 C 155.2718260641914 145.56002612811 94.3134907301713 C 0.0 **** -0.24
24692 H 155.96454931656913 146.2436589203237 94.80457022585084 H 0.0 **** 0.06
24693 H 155.3751783613199 144.56455321801758 94.74592496176071 H 0.0 **** 0.06
24694 H 155.4982416342065 145.51870891164654 93.24788468194141 H 0.0 **** 0.06
24695 H 154.25101738857063 145.91420425649238 94.4541244523735 H 0.0 **** 0.06
24696 C 144.55241248480104 164.38057939536267 17.98530448685868 C 0.0 **** -0.24
24697 H 144.55539669371097 164.30979344466496 16.898108193613673 H 0.0 **** 0.06
24698 H 143.54722404055497 164.6247800219525 18.329858727720854 H 0.0 **** 0.06
24699 H 145.24485751671375 165.16134827769494 18.30020319569403 H 0.0 **** 0.06
24700 H 144.86231799707286 163.42736689767332 18.412858992185903 H 0.0 **** 0.06
24701 C 137.1149724027871 7.936738725992548 85.86260742208299 C 0.0 **** -0.24
24702 H 137.0859545559989 8.298170951818975 84.83401026665132 H 0.0 **** 0.06
24703 H 137.3133922594887 8.771451631658216 86.53508663722101 H 0.0 **** 0.06
24704 H 137.90456124346395 7.192092484423718 85.96322451846487 H 0.0 **** 0.06
24705 H 136.15499069809704 7.486370228199867 86.115326060227 H 0.0 **** 0.06
24706 C 28.949661987802273 103.62851043225969 118.20269595020072 C 0.0 **** -0.24
24707 H 29.455871282025754 102.8006273097284 118.70003292936924 H 0.0 **** 0.06
24708 H 27.89451479483722 103.62670287882669 118.47619274738993 H 0.0 **** 0.06
24709 H 29.04538057010261 103.51546229437245 117.1223800438383 H 0.0 **** 0.06
24710 H 29.40426622570078 104.56937909318027 118.5114134437812 H 0.0 **** 0.06
24711 C 72.57225834025105 121.67702786774423 22.148129068281975 C 0.0 **** -0.24
24712 H 71.80536135497155 122.43136455057554 22.324391795834856 H 0.0 **** 0.06
24713 H 72.09753083406567 120.71425356644995 21.962509108210384 H 0.0 **** 0.06
24714 H 73.21630857826035 121.60317090064343 23.023773274294 H 0.0 **** 0.06
24715 H 73.16891901267542 121.96190746923683 21.281146925696987 H 0.0 **** 0.06
24716 C 52.49859189000756 126.63879933990152 51.54436698214673 C 0.0 **** -0.24
24717 H 52.8742654322603 125.69035103514604 51.92844323562417 H 0.0 **** 0.06
24718 H 51.42688572787546 126.55760015602765 51.35969433605662 H 0.0 **** 0.06
24719 H 53.010569560637634 126.88158549968468 50.613715551272904 H 0.0 **** 0.06
24720 H 52.682286135209836 127.42519571916863 52.27642334703239 H 0.0 **** 0.06
24721 C 74.08478566387635 69.51612056307681 180.9799269121625 C 0.0 **** -0.24
24722 H 73.25102305374264 68.84247058850332 181.18156277819952 H 0.0 **** 0.06
24723 H 74.95387771165917 68.93456099845713 180.6705826439275 H 0.0 **** 0.06
24724 H 74.32548151870287 70.07672333277044 181.88328531687492 H 0.0 **** 0.06
24725 H 73.808924439458 70.20775243761953 180.18462805648852 H 0.0 **** 0.06
24726 C 117.92541926396727 4.9330495269464905 58.328373951545686 C 0.0 **** -0.24
24727 H 116.89893350131443 4.985583817513941 58.6913525909885 H 0.0 **** 0.06
24728 H 118.558997854308 5.582142122464177 58.93324695324958 H 0.0 **** 0.06
24729 H 117.96025657207015 5.257266997963164 57.288102464675575 H 0.0 **** 0.06
24730 H 118.28368974556194 3.9055304138122935 58.399719067649045 H 0.0 **** 0.06
24731 C 163.2797778877183 18.06585524162071 21.897050770842526 C 0.0 **** -0.24
24732 H 163.7948950487204 19.022069521925374 21.991607298443284 H 0.0 **** 0.06
24733 H 163.47280987469762 17.645582185758094 20.909559202937004 H 0.0 **** 0.06
24734 H 162.20806935435905 18.217039826116384 22.02517335850169 H 0.0 **** 0.06
24735 H 163.64490020249855 17.380328268141298 22.661896396292434 H 0.0 **** 0.06
24736 C 178.39568548214262 88.2588773625083 174.55831268039336 C 0.0 **** -0.24
24737 H 178.43463138239562 88.24301712578718 173.46901334647205 H 0.0 **** 0.06
24738 H 178.75474022038327 89.22149606553994 174.9206264383632 H 0.0 **** 0.06
24739 H 179.02536490832773 87.46258317286645 174.95572651670642 H 0.0 **** 0.06
24740 H 177.36785006165002 88.10630629889143 174.88664447583324 H 0.0 **** 0.06
24741 C 143.06196591024403 105.76379587064554 120.24038087388321 C 0.0 **** -0.24
24742 H 142.05834660837945 105.5609366308895 119.86667539099928 H 0.0 **** 0.06
24743 H 143.5202352245766 104.83193688299929 120.57220377123504 H 0.0 **** 0.06
24744 H 143.0047647508971 106.45915478115728 121.07778900307513 H 0.0 **** 0.06
24745 H 143.6639716495852 106.2018778198194 119.44458903759481 H 0.0 **** 0.06
24746 C 69.86001124352033 93.82890885906751 87.89383374815475 C 0.0 **** -0.24
24747 H 70.22495344765456 94.80457587507176 88.21414830459139 H 0.0 **** 0.06
24748 H 70.53848353109022 93.41579014560843 87.14678176138148 H 0.0 **** 0.06
24749 H 68.86513435173065 93.9367309561067 87.46160957970295 H 0.0 **** 0.06
24750 H 69.81221642551972 93.15965241078494 88.75233989447014 H 0.0 **** 0.06
24751 C 30.965586840617433 33.871008866244836 3.459837624648628 C 0.0 **** -0.24
24752 H 30.927356978576327 32.90944026239329 3.9735347210840075 H 0.0 **** 0.06
24753 H 30.861041406439696 33.713532510506354 2.386127317037875 H 0.0 **** 0.06
24754 H 31.92030778536794 34.35508534681672 3.666480437848918 H 0.0 **** 0.06
24755 H 30.152127719439022 34.504241467776055 3.8155947362139386 H 0.0 **** 0.06
24756 C 38.399746043846676 79.93112518185569 98.30109485393217 C 0.0 **** -0.24
24757 H 38.736374017011514 80.80896849365331 97.74885929699582 H 0.0 **** 0.06
24758 H 37.32862684716966 79.79969716148707 98.15495228160455 H 0.0 **** 0.06
24759 H 38.60874771491376 80.06752607971049 99.36263500191791 H 0.0 **** 0.06
24760 H 38.927669537972434 79.04980822834585 97.93702264708554 H 0.0 **** 0.06
24761 C 115.60827734738568 132.80229324029978 57.31618886487783 C 0.0 **** -0.24
24762 H 116.01327374727525 132.51561119600342 56.34666597326736 H 0.0 **** 0.06
24763 H 114.94492164682153 132.0166003752667 57.67912318902361 H 0.0 **** 0.06
24764 H 115.04880200155476 133.73283507936793 57.21606091053506 H 0.0 **** 0.06
24765 H 116.42508218209751 132.9443961333962 58.02383637150662 H 0.0 **** 0.06
24766 C 179.4969479674474 14.0232758741679 41.71864579338495 C 0.0 **** -0.24
24767 H 179.12748425908705 14.735567358423552 42.456478278961214 H 0.0 **** 0.06
24768 H 178.88899071968797 14.086101309688026 40.81716075933787 H 0.0 **** 0.06
24769 H 179.4383872481232 13.014653218743142 42.12804700329161 H 0.0 **** 0.06
24770 H 180.53353211307422 14.257598111137597 41.47572035310708 H 0.0 **** 0.06
24771 C 50.967338045106914 75.59531361208035 106.95902148507173 C 0.0 **** -0.24
24772 H 50.9168254525966 76.68387165177772 106.97484004965816 H 0.0 **** 0.06
24773 H 51.93424972366749 75.27123979854163 107.34563028573399 H 0.0 **** 0.06
24774 H 50.848234919402415 75.24153023181266 105.93451421335351 H 0.0 **** 0.06
24775 H 50.171314530917286 75.18602196512462 107.5799202214792 H 0.0 **** 0.06
24776 C 60.6059402168446 4.726363912843766 63.19032857907251 C 0.0 **** -0.24
24777 H 60.64450487507787 3.951991432240362 63.95693369871927 H 0.0 **** 0.06
24778 H 59.869513892750376 5.478662312716523 63.470654673538945 H 0.0 **** 0.06
24779 H 60.32543276931419 4.2789355477862046 62.23647072354579 H 0.0 **** 0.06
24780 H 61.586156241530034 5.1942769162145055 63.09700474141704 H 0.0 **** 0.06
24781 C 169.56169575577553 87.36284969117152 76.92522062016263 C 0.0 **** -0.24
24782 H 169.12728460609628 86.78135867610582 77.73820371214686 H 0.0 **** 0.06
24783 H 170.51029308691972 86.915799226504 76.62663835862378 H 0.0 **** 0.06
24784 H 169.7315202980803 88.38620880879374 77.26049083137173 H 0.0 **** 0.06
24785 H 168.87898244121746 87.36689570008879 76.07570928104894 H 0.0 **** 0.06
24786 C 133.26073035318888 170.6592802204563 58.07712654587091 C 0.0 **** -0.24
24787 H 133.04710574140313 169.61602649531395 58.31087976422032 H 0.0 **** 0.06
24788 H 134.28189241976492 170.89691129795222 58.37657084439715 H 0.0 **** 0.06
24789 H 132.56446572330947 171.30181463792496 58.61696677640532 H 0.0 **** 0.06
24790 H 133.14809186827858 170.82223403376682 57.005145670741015 H 0.0 **** 0.06
24791 C 107.52414261931072 129.37379424086544 173.91069617194248 C 0.0 **** -0.24
24792 H 107.36201257740443 129.81574217602343 174.8934047839042 H 0.0 **** 0.06
24793 H 108.3007308033696 128.6118584065748 173.97798615293078 H 0.0 **** 0.06
24794 H 107.83700660013416 130.14978847959253 173.21086799559575 H 0.0 **** 0.06
24795 H 106.59791219063023 128.91971371388024 173.55876517387864 H 0.0 **** 0.06
24796 C 35.29657974118007 103.16140912968167 11.614600023442222 C 0.0 **** -0.24
24797 H 35.19297804357302 102.09145453119193 11.430360389510781 H 0.0 **** 0.06
24798 H 36.35382453533214 103.4248936230528 11.63983340262439 H 0.0 **** 0.06
24799 H 34.83735923006117 103.41064484394549 12.571624821347996 H 0.0 **** 0.06
24800 H 34.801363849794456 103.7163516435558 10.818347319461708 H 0.0 **** 0.06
24801 C 107.84741618616816 173.28645122618775 104.93086950560355 C 0.0 **** -0.24
24802 H 107.54396300515334 172.29456036511124 105.26560379845488 H 0.0 **** 0.06
24803 H 108.72683745891196 173.6048601896976 105.49126431079138 H 0.0 **** 0.06
24804 H 107.03369463648862 173.99214715886927 105.09980993281563 H 0.0 **** 0.06
24805 H 108.08615319961542 173.2545335126261 103.86777202024454 H 0.0 **** 0.06
24806 C 141.86974117089738 134.64169609280287 121.85566630037842 C 0.0 **** -0.24
24807 H 142.21704533377886 133.61272454536396 121.95223623207751 H 0.0 **** 0.06
24808 H 141.69287411848984 135.05936758184345 122.84720649399041 H 0.0 **** 0.06
24809 H 140.94215416154742 134.66041071370773 121.28349895834153 H 0.0 **** 0.06
24810 H 142.62669645825292 135.23451029817204 121.34193934994768 H 0.0 **** 0.06
24811 C 112.73550670848915 156.50890649187764 34.030830684299076 C 0.0 **** -0.24
24812 H 112.71394808156553 156.393443091627 32.94731105602938 H 0.0 **** 0.06
24813 H 111.8203606797562 156.09907616622502 34.458107188946826 H 0.0 **** 0.06
24814 H 112.8110706928628 157.56764105437824 34.28108975453 H 0.0 **** 0.06
24815 H 113.59733940308745 155.97727816846427 34.43531939559608 H 0.0 **** 0.06
24816 C 92.93803990616254 10.724912731578868 113.67334810087567 C 0.0 **** -0.24
24817 H 92.9667828842505 11.273845432079668 114.61458935284844 H 0.0 **** 0.06
24818 H 92.34326076517976 11.27941457370303 112.94743085632422 H 0.0 **** 0.06
24819 H 92.48883451499375 9.745164008867071 113.83884536471942 H 0.0 **** 0.06
24820 H 93.95281397052679 10.600523272302773 113.29459720846575 H 0.0 **** 0.06
24821 C 22.372704698600216 45.73248528306041 178.69388426896342 C 0.0 **** -0.24
24822 H 23.346885141647817 46.10878084202557 179.0071692773827 H 0.0 **** 0.06
24823 H 22.484716940770397 44.72628638247507 178.2909867960306 H 0.0 **** 0.06
24824 H 21.960528754534323 46.3881586609662 177.9264712177857 H 0.0 **** 0.06
24825 H 21.700336111539457 45.70909112257064 179.55170917487848 H 0.0 **** 0.06
24826 C 125.9434781494674 170.8792558124783 171.3190888039835 C 0.0 **** -0.24
24827 H 125.20749967282946 170.5971032693479 170.5656705883792 H 0.0 **** 0.06
24828 H 126.36709545400568 171.8514838288604 171.0665092404674 H 0.0 **** 0.06
24829 H 126.73719291876513 170.13301269624858 171.34680933865874 H 0.0 **** 0.06
24830 H 125.46178351707808 170.9338802153872 172.29462700621704 H 0.0 **** 0.06
24831 C 41.87853301702272 157.45068000830048 74.48480871347492 C 0.0 **** -0.24
24832 H 42.09660243335473 158.34170855293476 73.89682129556952 H 0.0 **** 0.06
24833 H 42.22571571978217 156.5673139935702 73.94808528475272 H 0.0 **** 0.06
24834 H 40.80269596562226 157.37748617689718 74.6471469118869 H 0.0 **** 0.06
24835 H 42.388040571616315 157.51550512571998 75.44659774303575 H 0.0 **** 0.06
24836 C 152.9834672432725 116.99855732726523 135.98616488909033 C 0.0 **** -0.24
24837 H 152.90249710785838 116.83763535015201 137.0616821342092 H 0.0 **** 0.06
24838 H 152.27112900082895 116.35563112327661 135.46797620010625 H 0.0 **** 0.06
24839 H 153.99475296592377 116.75966607623012 135.6589226397536 H 0.0 **** 0.06
24840 H 152.7648904082194 118.04181958487943 135.75816841207575 H 0.0 **** 0.06
24841 C 134.27482791555872 105.92711190424517 179.9890416251987 C 0.0 **** -0.24
24842 H 133.67461197061732 106.70419184313504 179.5157331084688 H 0.0 **** 0.06
24843 H 134.58096584444684 106.2585330760861 180.98182255021493 H 0.0 **** 0.06
24844 H 135.15930605567723 105.73192167092996 179.3820114982056 H 0.0 **** 0.06
24845 H 133.68542119687112 105.0147721720438 180.0755648890378 H 0.0 **** 0.06
24846 C 47.01290273009474 96.78798835979643 156.55963325526636 C 0.0 **** -0.24
24847 H 46.557209195261294 96.9794498742005 155.58778487647047 H 0.0 **** 0.06
24848 H 48.0478180813552 96.47463505889834 156.41923628679967 H 0.0 **** 0.06
24849 H 46.460277506705296 96.00042425007092 157.07112077049774 H 0.0 **** 0.06
24850 H 46.986766373686606 97.69916733281036 157.1577796823583 H 0.0 **** 0.06
24851 C 68.2973260688131 27.809744939568247 159.3216345410777 C 0.0 **** -0.24
24852 H 68.40917192313177 26.810126136740564 158.90231115249858 H 0.0 **** 0.06
24853 H 68.91933971769171 27.901569425979858 160.2131897549936 H 0.0 **** 0.06
24854 H 67.2539260745578 27.978556644116537 159.58713484799608 H 0.0 **** 0.06
24855 H 68.60844747798797 28.55030358427291 158.58377224746093 H 0.0 **** 0.06
24856 C 121.24596079747211 86.71003870962352 85.07937600707373 C 0.0 **** -0.24
24857 H 121.62621795116247 86.54241901966253 86.08671779772953 H 0.0 **** 0.06
24858 H 121.94992798161296 86.30365020241504 84.35238633995732 H 0.0 **** 0.06
24859 H 121.12636276250662 87.78042562880756 84.90973363618559 H 0.0 **** 0.06
24860 H 120.28124567061904 86.21537370256442 84.96890155315862 H 0.0 **** 0.06
24861 C 62.20544400156129 112.47504774970348 11.218061064467008 C 0.0 **** -0.24
24862 H 61.53040615273005 112.44928124721316 10.362248953464672 H 0.0 **** 0.06
24863 H 61.768396740723716 111.90883291189432 12.041732030593806 H 0.0 **** 0.06
24864 H 62.35786138988402 113.50831017931058 11.528609023334326 H 0.0 **** 0.06
24865 H 63.161407619186406 112.03326610579488 10.939482766581648 H 0.0 **** 0.06
24866 C 19.741219469715816 173.16698325448692 2.4295474443074596 C 0.0 **** -0.24
24867 H 19.83222198840241 173.39431109977886 1.367032514894504 H 0.0 **** 0.06
24868 H 19.353322901858235 174.03921455447104 2.9546418618627825 H 0.0 **** 0.06
24869 H 20.721795827242147 172.90833825458114 2.8291949582197944 H 0.0 **** 0.06
24870 H 19.060269687400705 172.32749699285506 2.564582766299779 H 0.0 **** 0.06
24871 C 77.70016094799234 83.62144460307763 42.37492652213791 C 0.0 **** -0.24
24872 H 77.61335455674384 82.67814990623901 42.91252682476306 H 0.0 **** 0.06
24873 H 77.85484035805592 83.42225561410254 41.31454480419188 H 0.0 **** 0.06
24874 H 78.54799036841149 84.18521103810502 42.76576546079133 H 0.0 **** 0.06
24875 H 76.78643836093761 84.20030861673746 42.50711137220742 H 0.0 **** 0.06
24876 C 24.553852826391335 105.39595328385694 73.025615259766 C 0.0 **** -0.24
24877 H 24.04677959282928 104.72657497704485 72.33058088264242 H 0.0 **** 0.06
24878 H 24.350106752908715 106.42998574780624 72.74903481438442 H 0.0 **** 0.06
24879 H 25.6279200748142 105.2131305573014 72.98684967259835 H 0.0 **** 0.06
24880 H 24.190803847095566 105.21138339595517 74.03667498035104 H 0.0 **** 0.06
24881 C 148.9531025384725 119.03194309223254 151.32852148521113 C 0.0 **** -0.24
24882 H 149.2916338455504 118.3405469102896 150.55608943891758 H 0.0 **** 0.06
24883 H 148.06855492159883 118.62300892947717 151.81846001861797 H 0.0 **** 0.06
24884 H 148.7071738886232 119.99148806832589 150.87385688691677 H 0.0 **** 0.06
24885 H 149.7454925376341 119.1693219580627 152.0641970227232 H 0.0 **** 0.06
24886 C 68.69918609287691 99.87469326120923 138.0218322439187 C 0.0 **** -0.24
24887 H 69.2071475441087 99.70527572778151 137.0721774443989 H 0.0 **** 0.06
24888 H 68.7723025252316 98.97845858859024 138.63785396531392 H 0.0 **** 0.06
24889 H 67.6499264824314 100.1050561188194 137.83666585436617 H 0.0 **** 0.06
24890 H 69.16797927497618 100.71108586513365 138.53999218110607 H 0.0 **** 0.06
24891 C 65.16077458847808 40.03822548624942 133.94568479368178 C 0.0 **** -0.24
24892 H 64.4205384280939 40.69504739014802 134.40300611032785 H 0.0 **** 0.06
24893 H 64.99020075492659 39.01360309395001 134.27571036516076 H 0.0 **** 0.06
24894 H 66.16045762151339 40.35490418306054 134.24404667754243 H 0.0 **** 0.06
24895 H 65.07165888306449 40.090913056115795 132.86067568275183 H 0.0 **** 0.06
24896 C 118.49084063138265 174.8251973964973 114.27473870641366 C 0.0 **** -0.24
24897 H 119.04599503216643 175.76136922113852 114.24257959234144 H 0.0 **** 0.06
24898 H 118.11106876444133 174.6629541601727 115.28388331688491 H 0.0 **** 0.06
24899 H 119.14864132773526 174.00204801535745 113.99769416677633 H 0.0 **** 0.06
24900 H 117.65556053214705 174.87394803480746 113.5759734380673 H 0.0 **** 0.06
24901 C 64.55075285439037 26.417422105131322 90.6766291503367 C 0.0 **** -0.24
24902 H 65.56117412347936 26.192006362284502 91.01526453526996 H 0.0 **** 0.06
24903 H 64.5967728086618 27.08070998782665 89.81307561750187 H 0.0 **** 0.06
24904 H 63.997536720423426 26.90358039393476 91.48025244093763 H 0.0 **** 0.06
24905 H 64.04594083117723 25.491837451890945 90.398181205142 H 0.0 **** 0.06
24906 C 148.12310586658435 119.40928130294958 91.4994947735932 C 0.0 **** -0.24
24907 H 148.18018156236633 118.32277298080311 91.56053065475146 H 0.0 **** 0.06
24908 H 147.08009830158105 119.7121732713137 91.39726421826151 H 0.0 **** 0.06
24909 H 148.68889631235828 119.75510804898272 90.63516650047796 H 0.0 **** 0.06
24910 H 148.54085843221054 119.84655095770523 92.40702352604268 H 0.0 **** 0.06
24911 C 179.00963694017213 88.25126001497192 63.62748463724232 C 0.0 **** -0.24
24912 H 179.9550883256585 88.16410665406751 64.1631994322053 H 0.0 **** 0.06
24913 H 178.4792817732644 89.13996958497809 63.96945255736277 H 0.0 **** 0.06
24914 H 178.40029956258996 87.36789816570625 63.81878066318562 H 0.0 **** 0.06
24915 H 179.20480184835526 88.33338563602673 62.55748396220973 H 0.0 **** 0.06
24916 C 120.97655546380163 185.29291250595597 31.986592106781814 C 0.0 **** -0.24
24917 H 121.45394877883844 185.2144644690599 31.009819926340697 H 0.0 **** 0.06
24918 H 120.06708305022899 185.88712971079 31.89924681639772 H 0.0 **** 0.06
24919 H 121.65924514618213 185.77456770481513 32.686208012693214 H 0.0 **** 0.06
24920 H 120.72736392043625 184.296165848463 32.34950396801497 H 0.0 **** 0.06
24921 C 103.59992508047027 7.105816907552331 168.08109945774552 C 0.0 **** -0.24
24922 H 102.57439455252076 7.005717092775463 167.72563423271038 H 0.0 **** 0.06
24923 H 104.25759160644763 7.316915895908743 167.2365490586647 H 0.0 **** 0.06
24924 H 103.91026668355617 6.177210519351611 168.5603286647704 H 0.0 **** 0.06
24925 H 103.65716806395419 7.922381493270038 168.79992756546937 H 0.0 **** 0.06
24926 C 0.029751427287067145 166.1403031211654 75.29046141852176 C 0.0 **** -0.24
24927 H -0.9892831790847652 166.46085790814817 75.50648099306366 H 0.0 **** 0.06
24928 H 0.008201265622830078 165.16460799792148 74.80449434888583 H 0.0 **** 0.06
24929 H 0.5931385905009847 166.06991138833493 76.22111617770882 H 0.0 **** 0.06
24930 H 0.5056909169657331 166.86499706585707 74.63059959391207 H 0.0 **** 0.06
24931 C 173.82342583059327 121.03872337583267 87.32692240379843 C 0.0 **** -0.24
24932 H 173.79942965725672 119.96601213892818 87.51240040634089 H 0.0 **** 0.06
24933 H 173.84807837389124 121.22147702091034 86.25159093119997 H 0.0 **** 0.06
24934 H 174.7122809785755 121.46819518783455 87.78957871592532 H 0.0 **** 0.06
24935 H 172.93258082839571 121.50142509162019 87.75259914402513 H 0.0 **** 0.06
24936 C 104.69782048310158 16.25637619317026 86.2256229291002 C 0.0 **** -0.24
24937 H 105.57703776888754 16.477000174755382 85.62155972960421 H 0.0 **** 0.06
24938 H 104.9066404145426 15.406023593133156 86.87491874744443 H 0.0 **** 0.06
24939 H 103.8588214522468 16.017050903555237 85.57168377807231 H 0.0 **** 0.06
24940 H 104.44766954880878 17.126637618433293 86.83377830936688 H 0.0 **** 0.06
24941 C 135.1845439827357 70.30759826490944 181.68049554559636 C 0.0 **** -0.24
24942 H 136.03705475354326 69.775695788111 182.10328214955933 H 0.0 **** 0.06
24943 H 134.26000513819525 69.83769354609348 182.01761847774077 H 0.0 **** 0.06
24944 H 135.2362393036766 70.26978309266565 180.59289822039113 H 0.0 **** 0.06
24945 H 135.20558642414653 71.3463625131701 182.00905512724447 H 0.0 **** 0.06
24946 C 60.68739283759987 54.77953475740969 170.91491351972599 C 0.0 **** -0.24
24947 H 61.244999172599194 55.05029708514607 171.81099737632545 H 0.0 **** 0.06
24948 H 59.71315792730155 55.27049607727824 170.93099900506556 H 0.0 **** 0.06
24949 H 60.5492641109181 53.69922748093518 170.8855370086428 H 0.0 **** 0.06
24950 H 61.24042507763534 55.09912639435325 170.03203024624761 H 0.0 **** 0.06
24951 C 139.52903846966143 54.54125871831354 160.17067049400356 C 0.0 **** -0.24
24952 H 138.7218127110512 53.88913282863041 160.50697661699348 H 0.0 **** 0.06
24953 H 140.47072503552528 53.99381296748743 160.1964367680848 H 0.0 **** 0.06
24954 H 139.59277350022592 55.40793092959271 160.8289641199471 H 0.0 **** 0.06
24955 H 139.32703521736943 54.87174527403397 159.15160145987957 H 0.0 **** 0.06
24956 C 46.573979802529266 55.87060284707107 120.96924847791111 C 0.0 **** -0.24
24957 H 45.53368461953957 55.881947454949625 120.64598455445314 H 0.0 **** 0.06
24958 H 47.1546296513163 55.232896112203164 120.30201968710797 H 0.0 **** 0.06
24959 H 46.634440239486366 55.482502371722674 121.98567255395106 H 0.0 **** 0.06
24960 H 46.97429990419039 56.88466775916591 120.94257334006643 H 0.0 **** 0.06
24961 C 2.9180546699142837 85.91107846840991 133.02105997019123 C 0.0 **** -0.24
24962 H 3.6690683124749626 86.37265989562682 132.37993871934424 H 0.0 **** 0.06
24963 H 1.9229297903928853 86.16310667816462 132.65297350213638 H 0.0 **** 0.06
24964 H 3.0327250003180097 86.28090803663842 134.04016554805412 H 0.0 **** 0.06
24965 H 3.0462010958610506 84.82845929901225 133.0103546860774 H 0.0 **** 0.06
24966 C 163.31685650926164 50.97970194777264 118.6552418316575 C 0.0 **** -0.24
24967 H 163.97052428799648 50.1534205437643 118.37521174757286 H 0.0 **** 0.06
24968 H 163.7339148467553 51.49511849880645 119.51923919008952 H 0.0 **** 0.06
24969 H 162.32923659166804 50.591645462405324 118.90421255770711 H 0.0 **** 0.06
24970 H 163.23342745679972 51.67522933794584 117.8207620053157 H 0.0 **** 0.06
24971 C 81.47523128679427 161.47119200316024 165.22226904392448 C 0.0 **** -0.24
24972 H 80.49601717059676 161.24963414348358 164.79828297924053 H 0.0 **** 0.06
24973 H 82.13612043495056 161.84238715035178 164.4374263080938 H 0.0 **** 0.06
24974 H 81.89856389492024 160.5638182923093 165.6540905780688 H 0.0 **** 0.06
24975 H 81.3718886042198 162.2290718713144 165.9988208827845 H 0.0 **** 0.06
24976 C 122.13606616230288 122.51960811254277 131.1977021495099 C 0.0 **** -0.24
24977 H 122.96855682826339 123.21070543063506 131.06391813546065 H 0.0 **** 0.06
24978 H 121.90466729724022 122.04093560415588 130.24499568209245 H 0.0 **** 0.06
24979 H 121.26182695465576 123.06852105839248 131.54988219818534 H 0.0 **** 0.06
24980 H 122.40697595394118 121.7603704800929 131.92987180964468 H 0.0 **** 0.06
24981 C 84.36921720269129 153.06668166375363 9.634401116434901 C 0.0 **** -0.24
24982 H 84.40912818190372 153.42428118893898 10.663885981008718 H 0.0 **** 0.06
24983 H 85.00911575341576 153.6902902460562 9.008710628100289 H 0.0 **** 0.06
24984 H 83.34293913413256 153.12013909155874 9.271840805460386 H 0.0 **** 0.06
24985 H 84.71581806416839 152.03481455435303 9.594633867565165 H 0.0 **** 0.06
24986 C 148.44954796894842 139.0451234959483 46.23185372869662 C 0.0 **** -0.24
24987 H 148.4739091506439 138.355858684211 45.387548732895056 H 0.0 **** 0.06
24988 H 148.93528481652245 139.97939622121635 45.95180278421222 H 0.0 **** 0.06
24989 H 148.97457014423148 138.60071260876452 47.07775860332623 H 0.0 **** 0.06
24990 H 147.4140330514949 139.2423265339533 46.51023690881743 H 0.0 **** 0.06
24991 C 122.38190937520282 17.38975828757772 14.808199448372882 C 0.0 **** -0.24
24992 H 121.31184808145692 17.4780153942352 14.99473057692817 H 0.0 **** 0.06
24993 H 122.9069758751749 17.273939175494498 15.75678338631937 H 0.0 **** 0.06
24994 H 122.73718953200559 18.287715075780646 14.302652239326278 H 0.0 **** 0.06
24995 H 122.57055312778117 16.519697432650887 14.17949283898755 H 0.0 **** 0.06
24996 C 51.13935599298287 131.8163342849769 123.21854435460274 C 0.0 **** -0.24
24997 H 50.46248635157269 132.29865811661352 123.92287491815485 H 0.0 **** 0.06
24998 H 50.55999690079234 131.27806298287595 122.46804690348593 H 0.0 **** 0.06
24999 H 51.781380540704376 131.11573920535272 123.75372041056703 H 0.0 **** 0.06
25000 H 51.75479261552658 132.57180617740607 122.73011386244188 H 0.0 **** 0.06
25001 C 57.8636356337682 61.824530270858745 168.33903225390534 C 0.0 **** -0.24
25002 H 57.46644661475028 62.839523554877246 168.30490154443504 H 0.0 **** 0.06
25003 H 58.950854905849724 61.8631236693691 168.41284410261105 H 0.0 **** 0.06
25004 H 57.57869572555944 61.29188495568667 167.43264572540946 H 0.0 **** 0.06
25005 H 57.45837623872589 61.30612037037949 169.208096327982 H 0.0 **** 0.06
25006 C 161.51288566443947 1.8074361714482876 96.0039892470373 C 0.0 **** -0.24
25007 H 161.28703370810723 0.9746436816141042 95.33806513455998 H 0.0 **** 0.06
25008 H 161.45980923676302 1.4697465364764355 97.03867709845873 H 0.0 **** 0.06
25009 H 160.7888078513621 2.6067070917415336 95.84373726690022 H 0.0 **** 0.06
25010 H 162.5153970411191 2.178105873311466 95.79314037977402 H 0.0 **** 0.06
25011 C 52.09707105459739 146.850741302683 137.88770152823537 C 0.0 **** -0.24
25012 H 52.4498857558372 147.092255211378 138.89009873966995 H 0.0 **** 0.06
25013 H 52.45933717975734 147.60058724377558 137.18467900112853 H 0.0 **** 0.06
25014 H 51.00699567508576 146.84201901894278 137.87910154626263 H 0.0 **** 0.06
25015 H 52.470575548055706 145.86912307212745 137.59824622004385 H 0.0 **** 0.06
25016 C 17.906027755856712 121.73978354956097 142.75605709366533 C 0.0 **** -0.24
25017 H 18.54501138484784 122.25750701160985 143.4709232936557 H 0.0 **** 0.06
25018 H 17.796338847423044 122.35058188573106 141.85868918956714 H 0.0 **** 0.06
25019 H 16.926081364690333 121.56873513523834 143.2017092842934 H 0.0 **** 0.06
25020 H 18.357291823445024 120.78315267009964 142.49092790054942 H 0.0 **** 0.06
25021 C 94.27431720613362 80.10240946222663 179.7307365092259 C 0.0 **** -0.24
25022 H 93.38497906621222 79.93376820696534 180.33658642584356 H 0.0 **** 0.06
25023 H 93.98965825370215 80.57702892588509 178.79119617923328 H 0.0 **** 0.06
25024 H 94.75861145706841 79.14739851158768 179.52363131872164 H 0.0 **** 0.06
25025 H 94.96542193490711 80.74944074428244 180.27170245762775 H 0.0 **** 0.06
25026 C 124.85547070178343 68.67104697361944 100.35991346407894 C 0.0 **** -0.24
25027 H 125.12406866625302 69.61421535123173 100.83435405691444 H 0.0 **** 0.06
25028 H 124.64528492055295 68.8432565202201 99.30437797445023 H 0.0 **** 0.06
25029 H 123.96998967827916 68.25937805578465 100.84464373179645 H 0.0 **** 0.06
25030 H 125.68253954204847 67.96733796724135 100.45627809315465 H 0.0 **** 0.06
25031 C 15.485449826169855 32.975097681742994 181.63029491260224 C 0.0 **** -0.24
25032 H 15.727234090601058 32.37986398592858 180.74976122212223 H 0.0 **** 0.06
25033 H 16.114817385515437 32.662933829386645 182.46336967181287 H 0.0 **** 0.06
25034 H 14.437351804791717 32.82944423363307 181.89150358437414 H 0.0 **** 0.06
25035 H 15.662592598494712 34.029229337863654 181.414873756069 H 0.0 **** 0.06
25036 C 33.53329837878931 106.39182097123906 137.69246560933954 C 0.0 **** -0.24
25037 H 34.2950448556017 106.81835746466616 138.34431778840593 H 0.0 **** 0.06
25038 H 32.84928524359748 105.78219844240756 138.28371326540264 H 0.0 **** 0.06
25039 H 34.010056874209 105.76995999561628 136.93495876418825 H 0.0 **** 0.06
25040 H 32.978931904970494 107.19477307725397 137.20787499734905 H 0.0 **** 0.06
25041 C 19.02805395474695 164.21202512787 162.13082710774574 C 0.0 **** -0.24
25042 H 19.426513964786693 163.20280561466024 162.02777395088174 H 0.0 **** 0.06
25043 H 19.11373943840853 164.53211388448022 163.17023443888365 H 0.0 **** 0.06
25044 H 17.97927479977274 164.2215218473571 161.8325730525935 H 0.0 **** 0.06
25045 H 19.593028560780112 164.89212877201936 161.49354139062302 H 0.0 **** 0.06
25046 C 64.01892339512501 131.83925278242077 18.252027385013534 C 0.0 **** -0.24
25047 H 64.40562246536373 130.96345533645706 17.73116270019161 H 0.0 **** 0.06
25048 H 64.82033737661897 132.30250539488395 18.82730992733348 H 0.0 **** 0.06
25049 H 63.21631446200453 131.53736939052555 18.923941552749078 H 0.0 **** 0.06
25050 H 63.63458648698345 132.55335182327315 17.52410496482461 H 0.0 **** 0.06
25051 C 138.4299831456931 32.125154818349586 78.2002344919245 C 0.0 **** -0.24
25052 H 138.89163898540966 32.9480159026042 78.74578822786613 H 0.0 **** 0.06
25053 H 137.51013730942725 32.47168864682237 77.7282849955589 H 0.0 **** 0.06
25054 H 138.200936539387 31.313999849767754 78.89234190089792 H 0.0 **** 0.06
25055 H 139.11809729667976 31.765807317392415 77.43458008510531 H 0.0 **** 0.06
25056 C 140.0594693912568 133.91449183358628 79.27793006319708 C 0.0 **** -0.24
25057 H 139.0260201152728 133.99887899094125 79.61245769852354 H 0.0 **** 0.06
25058 H 140.21776428370566 134.56966675205672 78.42017021048316 H 0.0 **** 0.06
25059 H 140.2662972127431 132.88354016993594 78.99167970118006 H 0.0 **** 0.06
25060 H 140.72732155635623 134.20753937472995 80.08725073993656 H 0.0 **** 0.06
25061 C 22.34873624794571 10.906256860802102 102.89423648838006 C 0.0 **** -0.24
25062 H 21.384236592271677 11.379990289533339 103.07210265118398 H 0.0 **** 0.06
25063 H 23.104720252774683 11.37314361363633 103.52721623411823 H 0.0 **** 0.06
25064 H 22.626027562497057 11.026806123996153 101.84695106005283 H 0.0 **** 0.06
25065 H 22.281167319964325 9.844736696596044 103.13186800602794 H 0.0 **** 0.06
25066 C 11.018220831639496 154.79648919038522 184.18762946695378 C 0.0 **** -0.24
25067 H 10.659264421164067 155.82400316956347 184.24402693240134 H 0.0 **** 0.06
25068 H 10.927861602899725 154.32544978906188 185.16577179982627 H 0.0 **** 0.06
25069 H 12.06361046067471 154.79338951124615 183.87767737562825 H 0.0 **** 0.06
25070 H 10.423183159494215 154.24387351693525 183.46052187496352 H 0.0 **** 0.06
25071 C 174.66466029393365 176.34825085261184 78.73361795926422 C 0.0 **** -0.24
25072 H 175.299174666246 175.77918794062174 78.05493891092289 H 0.0 **** 0.06
25073 H 175.21144026794911 176.55633754429323 79.65341519602941 H 0.0 **** 0.06
25074 H 173.76946897541387 175.77008821977253 78.96463280474438 H 0.0 **** 0.06
25075 H 174.37815994303534 177.28820905644702 78.26040286794796 H 0.0 **** 0.06
25076 C 118.94169300965122 72.4395693879351 116.5414283638835 C 0.0 **** -0.24
25077 H 118.70631461976446 72.15159256475191 115.51740800389702 H 0.0 **** 0.06
25078 H 119.17157504878806 71.54847187615866 117.12575947017048 H 0.0 **** 0.06
25079 H 118.08432120505024 72.95009564154199 116.98044192293689 H 0.0 **** 0.06
25080 H 119.80158681621917 73.10798607392253 116.54247312086933 H 0.0 **** 0.06
25081 C 128.10270442798048 47.571783719523296 91.03267078874734 C 0.0 **** -0.24
25082 H 128.04094998458703 47.27704355062815 89.98491795820439 H 0.0 **** 0.06
25083 H 128.70401446003535 46.84463150674458 91.57971219898133 H 0.0 **** 0.06
25084 H 127.09935109040542 47.6078657353512 91.45824869806182 H 0.0 **** 0.06
25085 H 128.56396757378144 48.55600733457942 91.10677558396719 H 0.0 **** 0.06
25086 C 60.90532420991099 128.69700509249407 159.93076309322356 C 0.0 **** -0.24
25087 H 61.67890264182144 129.2147935652804 160.49700230677013 H 0.0 **** 0.06
25088 H 59.94717260067135 128.80759039238768 160.44031956074497 H 0.0 **** 0.06
25089 H 61.15734903738635 127.63957579103709 159.85501941438673 H 0.0 **** 0.06
25090 H 60.83675252451822 129.12754715299747 158.93195039242778 H 0.0 **** 0.06
25091 C 53.85538338167251 169.55055479887622 169.62395018660027 C 0.0 **** -0.24
25092 H 53.78684570014536 168.47254275262998 169.48134600052106 H 0.0 **** 0.06
25093 H 53.24780431814236 170.05476443569347 168.87183868530198 H 0.0 **** 0.06
25094 H 54.894224908017634 169.86510175447174 169.52341729418202 H 0.0 **** 0.06
25095 H 53.49114950381667 169.80882630427848 170.6178741545253 H 0.0 **** 0.06
25096 C 41.2503094986303 26.632636310046223 121.3867058259067 C 0.0 **** -0.24
25097 H 42.11990332159358 26.069179575958458 121.72559144884788 H 0.0 **** 0.06
25098 H 40.39204493250446 25.964331712763197 121.31191089742005 H 0.0 **** 0.06
25099 H 41.45909602469537 27.06840266845478 120.41002306619383 H 0.0 **** 0.06
25100 H 41.031887795574875 27.427226768146397 122.09969482321021 H 0.0 **** 0.06
25101 C 25.231810887197895 13.447169651776477 154.346599665062 C 0.0 **** -0.24
25102 H 24.708362210016986 12.707334764718269 153.74186653414623 H 0.0 **** 0.06
25103 H 24.619255555691964 13.711809931235194 155.20842438566388 H 0.0 **** 0.06
25104 H 25.420557783648576 14.338410589884404 153.74798245272976 H 0.0 **** 0.06
25105 H 26.180215255010552 13.03178481193882 154.68862155796137 H 0.0 **** 0.06
25106 C 0.9500697739419408 125.04946814068258 72.80080837313943 C 0.0 **** -0.24
25107 H 1.7727851745144036 125.72126691611051 72.55676507973521 H 0.0 **** 0.06
25108 H 0.04000355804504352 125.62979300177584 72.95439520028486 H 0.0 **** 0.06
25109 H 1.188927472766494 124.49928105244167 73.71100205229214 H 0.0 **** 0.06
25110 H 0.8002810547827366 124.34770310824338 71.98093489668203 H 0.0 **** 0.06
25111 C 162.21394893381432 77.53075052765611 159.98915420099206 C 0.0 **** -0.24
25112 H 162.361222488846 77.95107041312558 160.98325480949532 H 0.0 **** 0.06
25113 H 163.05892520811608 77.79676120463515 159.35334227825214 H 0.0 **** 0.06
25114 H 161.29540276352068 77.9303262965608 159.55810138733517 H 0.0 **** 0.06
25115 H 162.13943365512492 76.44524794892004 160.06044241170838 H 0.0 **** 0.06
25116 C 64.67010868710908 12.884939641639278 83.9785029973873 C 0.0 **** -0.24
25117 H 64.72395397712427 11.798349914719296 83.90883362512722 H 0.0 **** 0.06
25118 H 64.35485063875295 13.296032872554036 83.01922874370257 H 0.0 **** 0.06
25119 H 65.65241738892185 13.280246702580996 84.23811293041473 H 0.0 **** 0.06
25120 H 63.95114896314759 13.163878775800569 84.74866611778958 H 0.0 **** 0.06
25121 C 58.775661689274614 46.416229707352784 106.03627193195207 C 0.0 **** -0.24
25122 H 58.848532295875486 45.42268915059731 106.47920467273524 H 0.0 **** 0.06
25123 H 58.800052473698884 47.16791095553674 106.82545870466443 H 0.0 **** 0.06
25124 H 57.839561031638056 46.49999363134248 105.48391558469406 H 0.0 **** 0.06
25125 H 59.61349795747151 46.57330990599951 105.35823025207024 H 0.0 **** 0.06
25126 C 92.64897185669044 107.99144311271321 114.59963668619564 C 0.0 **** -0.24
25127 H 92.47642834001225 108.11871519996394 115.668249763493 H 0.0 **** 0.06
25128 H 93.1341248232214 107.03167193395616 114.42127678948704 H 0.0 **** 0.06
25129 H 93.29006391324559 108.79621095815834 114.23760202880233 H 0.0 **** 0.06
25130 H 91.69589988196664 108.02127843383049 114.07099782790372 H 0.0 **** 0.06
25131 C 27.62205611586137 64.79349823283964 174.47768341060066 C 0.0 **** -0.24
25132 H 26.896420528405372 64.08623377270749 174.87864890421008 H 0.0 **** 0.06
25133 H 27.9175298760523 65.49320692489789 175.25930823102465 H 0.0 **** 0.06
25134 H 27.174336671974572 65.34188447537382 173.6488419340934 H 0.0 **** 0.06
25135 H 28.499937387013063 64.25266775837937 174.1239345730744 H 0.0 **** 0.06
25136 C 103.74427242166053 155.42523793241008 176.462633530543 C 0.0 **** -0.24
25137 H 104.74288055754403 155.70902304115097 176.79413791209603 H 0.0 **** 0.06
25138 H 103.38608774355686 154.58927327163013 177.06480562065573 H 0.0 **** 0.06
25139 H 103.7794272719251 155.12904681382017 175.41384168206184 H 0.0 **** 0.06
25140 H 103.06809313795895 156.27179581228842 176.57891198152998 H 0.0 **** 0.06
25141 C 47.20472026936352 181.50161068581863 106.85415624990385 C 0.0 **** -0.24
25142 H 47.236027793440655 181.1082382553077 105.83766751186629 H 0.0 **** 0.06
25143 H 46.16780390729426 181.59441812809277 107.17577182598869 H 0.0 **** 0.06
25144 H 47.68233250179705 182.48072134544327 106.87807728897467 H 0.0 **** 0.06
25145 H 47.73413754640211 180.82216814858498 107.5222487231451 H 0.0 **** 0.06
25146 C 114.87513470184221 56.97517278186922 88.55582060440918 C 0.0 **** -0.24
25147 H 114.08705228665157 56.275044300969654 88.83285052659267 H 0.0 **** 0.06
25148 H 114.46146529568377 57.98176627619216 88.49590801081644 H 0.0 **** 0.06
25149 H 115.28820948191843 56.69281449723286 87.58741656171833 H 0.0 **** 0.06
25150 H 115.66329761665703 56.9498806274803 89.30863392880269 H 0.0 **** 0.06
25151 C 177.10503742647552 79.69220651937805 178.88128500646457 C 0.0 **** -0.24
25152 H 176.89562091370033 80.47838710945555 179.60617337703835 H 0.0 **** 0.06
25153 H 177.5755932492244 80.12762315368238 177.99910817399146 H 0.0 **** 0.06
25154 H 176.17380976569441 79.20470494819288 178.5937235155099 H 0.0 **** 0.06
25155 H 177.77645357355993 78.95763444644842 179.32623511277797 H 0.0 **** 0.06
25156 C 111.93089200279475 70.50495587857819 117.91720113040016 C 0.0 **** -0.24
25157 H 111.45270497875008 71.06719998965721 118.7194661118336 H 0.0 **** 0.06
25158 H 113.0136365840679 70.54696206479038 118.04009556674534 H 0.0 **** 0.06
25159 H 111.6571918015235 70.93947458180754 116.95572671014288 H 0.0 **** 0.06
25160 H 111.60089032170144 69.4666888967196 117.95364192041795 H 0.0 **** 0.06
25161 C 59.64068530011238 149.34568570939086 113.09149048611926 C 0.0 **** -0.24
25162 H 58.984481130247616 149.34499237799295 112.22057602732303 H 0.0 **** 0.06
25163 H 59.75750576056939 150.36573913405323 113.4570343905624 H 0.0 **** 0.06
25164 H 60.614302219565445 148.94535434622074 112.81194046631367 H 0.0 **** 0.06
25165 H 59.20449305334128 148.72628031347637 113.87440594290302 H 0.0 **** 0.06
25166 C 48.2922395766102 103.24997353339114 154.1687609297214 C 0.0 **** -0.24
25167 H 48.95171523591 103.61689023285868 153.38193987856124 H 0.0 **** 0.06
25168 H 48.10199765840724 104.05015425032758 154.8847261665696 H 0.0 **** 0.06
25169 H 48.76574916661025 102.41176970607569 154.67797436795541 H 0.0 **** 0.06
25170 H 47.34963393611679 102.92389248614637 153.72896424470827 H 0.0 **** 0.06
25171 C 34.94485375296034 17.192959799941363 39.270862196986 C 0.0 **** -0.24
25172 H 35.206064980987264 18.20251367804081 38.95397417493558 H 0.0 **** 0.06
25173 H 35.00681984875715 16.517136081441855 38.41764775803367 H 0.0 **** 0.06
25174 H 33.92905729394144 17.18856396180221 39.66538162486751 H 0.0 **** 0.06
25175 H 35.63768809194471 16.864981621680123 40.0467837746109 H 0.0 **** 0.06
25176 C 81.99444940246774 100.75525450522709 18.561111078356703 C 0.0 **** -0.24
25177 H 82.49357855512355 101.38290699727749 19.299492961899773 H 0.0 **** 0.06
25178 H 80.96879000996424 100.56700506894502 18.87907386508769 H 0.0 **** 0.06
25179 H 82.52641718827144 99.80744836829469 18.471399338167487 H 0.0 **** 0.06
25180 H 81.99026575599417 101.26225972300857 17.596817792793416 H 0.0 **** 0.06
25181 C 9.279474074527855 7.747148702352504 94.15973286074609 C 0.0 **** -0.24
25182 H 9.197236678228094 6.917294120882893 94.86118972449583 H 0.0 **** 0.06
25183 H 10.149722946421285 7.598178437754768 93.52161602954737 H 0.0 **** 0.06
25184 H 9.38827594932338 8.68059829863845 94.71203655348302 H 0.0 **** 0.06
25185 H 8.380491471473931 7.79256371947961 93.54463032397331 H 0.0 **** 0.06
25186 C 157.1017597588698 17.287965373595426 98.87317477693159 C 0.0 **** -0.24
25187 H 156.664911274583 16.948884371011836 97.93319718675616 H 0.0 **** 0.06
25188 H 157.73582720098125 18.15524119906835 98.6869316448869 H 0.0 **** 0.06
25189 H 157.69926432162043 16.486483774463004 99.30539678003464 H 0.0 **** 0.06
25190 H 156.30523765180374 17.561346195693005 99.56477423273509 H 0.0 **** 0.06
25191 C 15.182901733656962 76.24503826809593 178.3604364768732 C 0.0 **** -0.24
25192 H 15.408092855526576 76.18540367305039 177.29532472102036 H 0.0 **** 0.06
25193 H 15.837120189227619 76.98012443429846 178.82968152458528 H 0.0 **** 0.06
25194 H 15.3430812297415 75.26939314304992 178.82049898276347 H 0.0 **** 0.06
25195 H 14.143943420488569 76.54401365652382 178.49518318755025 H 0.0 **** 0.06
25196 C 101.61733107842127 168.5888773461769 89.52779432883985 C 0.0 **** -0.24
25197 H 101.38393504282948 167.69026208980145 90.09943782880016 H 0.0 **** 0.06
25198 H 101.04000359036957 168.59133976774103 88.60362050636537 H 0.0 **** 0.06
25199 H 102.6819394710347 168.6030315787916 89.29249874369638 H 0.0 **** 0.06
25200 H 101.36385219299797 169.46990520475663 90.11783224519554 H 0.0 **** 0.06
25201 C 141.66392576660496 37.54870778609052 83.84959396098066 C 0.0 **** -0.24
25202 H 141.632492626275 36.99897966217054 82.90865755411636 H 0.0 **** 0.06
25203 H 141.36954527343408 36.88869581227087 84.66585659898664 H 0.0 **** 0.06
25204 H 140.9765467709987 38.39435387200044 83.79951176089082 H 0.0 **** 0.06
25205 H 142.67554825053054 37.91406373739426 84.02337922067852 H 0.0 **** 0.06
25206 C 93.21825481243194 162.8962664906483 176.6298446819771 C 0.0 **** -0.24
25207 H 93.85755940206984 162.67293736586157 175.77683292339287 H 0.0 **** 0.06
25208 H 93.80746811516441 163.3828609832044 177.407934572842 H 0.0 **** 0.06
25209 H 92.79586419462281 161.96957095193608 177.0196548064674 H 0.0 **** 0.06
25210 H 92.41227764007077 163.55903837683425 176.31619907557473 H 0.0 **** 0.06
25211 C 172.09312952549868 172.67493566303756 100.27180665623645 C 0.0 **** -0.24
25212 H 171.44702675402124 171.89109889502814 100.6680294613597 H 0.0 **** 0.06
25213 H 173.0497188555614 172.2413604316791 99.97679346237426 H 0.0 **** 0.06
25214 H 172.2576550332379 173.43233201211604 101.03804649106938 H 0.0 **** 0.06
25215 H 171.61815988924798 173.13195341234825 99.403351707004 H 0.0 **** 0.06
25216 C 50.92960086515555 63.45882083535355 73.39462084541346 C 0.0 **** -0.24
25217 H 51.26341271053741 62.71150098339399 72.67503134806977 H 0.0 **** 0.06
25218 H 51.24176746606899 64.44942262596578 73.0604793701546 H 0.0 **** 0.06
25219 H 51.370639084614666 63.2475522145931 74.3689899915858 H 0.0 **** 0.06
25220 H 49.84311677927188 63.426919903554676 73.47233834760796 H 0.0 **** 0.06
25221 C 121.65181207110781 179.9332901966672 133.52261029408328 C 0.0 **** -0.24
25222 H 122.00229531414477 179.48869744741953 134.45440971613544 H 0.0 **** 0.06
25223 H 122.32028585374725 180.74510825659848 133.23412523709493 H 0.0 **** 0.06
25224 H 120.64453807499838 180.32463524707035 133.66422775143144 H 0.0 **** 0.06
25225 H 121.64018303996433 179.17548354703712 132.73977941254515 H 0.0 **** 0.06
25226 C 94.72667232715482 70.93970412928272 180.48139793374287 C 0.0 **** -0.24
25227 H 94.59119105296223 71.01840498183734 181.5600352041135 H 0.0 **** 0.06
25228 H 93.78696485878989 71.16771498503881 179.97908800123122 H 0.0 **** 0.06
25229 H 95.0390636451411 69.92678315344398 180.22673318744182 H 0.0 **** 0.06
25230 H 95.49190034754473 71.6460936554931 180.15949068106409 H 0.0 **** 0.06
25231 C 52.42065026260231 117.38451466484169 121.69462825943346 C 0.0 **** -0.24
25232 H 51.54553733754399 117.99959300847983 121.48133175031923 H 0.0 **** 0.06
25233 H 52.48276094300758 116.57651274519328 120.96626399402412 H 0.0 **** 0.06
25234 H 52.33361760619708 116.96572986689317 122.69682332745698 H 0.0 **** 0.06
25235 H 53.3194334734775 117.99870720112447 121.63460622265949 H 0.0 **** 0.06
25236 C 68.07057715133386 95.29326702250808 92.86139501301926 C 0.0 **** -0.24
25237 H 68.78490027908052 95.24690840947181 93.6830151781042 H 0.0 **** 0.06
25238 H 68.61002302450962 95.32663253566147 91.91350244643598 H 0.0 **** 0.06
25239 H 67.45883348348582 96.18934598231596 92.96240257842896 H 0.0 **** 0.06
25240 H 67.43146797079795 94.41170138645987 92.88518157476545 H 0.0 **** 0.06
25241 C 65.5687207298252 171.0380864756088 147.6477808397713 C 0.0 **** -0.24
25242 H 66.33003812078141 171.01676649178165 148.42737537857045 H 0.0 **** 0.06
25243 H 65.49041696101557 170.05091273427558 147.19020031689118 H 0.0 **** 0.06
25244 H 65.8470701884508 171.7691235133215 146.88857546824653 H 0.0 **** 0.06
25245 H 64.60922267659816 171.31395715391506 148.08505216755634 H 0.0 **** 0.06
25246 C 36.61241906310539 130.68131119254298 4.244802308615078 C 0.0 **** -0.24
25247 H 37.10707864116955 130.80422210463507 3.2818458467286007 H 0.0 **** 0.06
25248 H 36.55831630729932 131.64568995354932 4.7503464420912 H 0.0 **** 0.06
25249 H 37.179310861532315 129.98113503557425 4.858374146991707 H 0.0 **** 0.06
25250 H 35.6056387222811 130.29541575782042 4.0889068614128234 H 0.0 **** 0.06
25251 C 6.695873852545731 54.16098504075981 168.4795453538942 C 0.0 **** -0.24
25252 H 7.301944592730706 54.25221275595686 169.38090217821838 H 0.0 **** 0.06
25253 H 5.823773439959268 54.81056133449695 168.56045824387172 H 0.0 **** 0.06
25254 H 6.369409939305228 53.12779665194637 168.36362549029755 H 0.0 **** 0.06
25255 H 7.288511751278122 54.45444308370682 167.6122863988067 H 0.0 **** 0.06
25256 C 170.11777541636306 120.12837818629505 84.65781808645484 C 0.0 **** -0.24
25257 H 170.32486521232408 119.59457280142338 85.58538263590138 H 0.0 **** 0.06
25258 H 169.65410971869392 119.44752048026284 83.94301300624184 H 0.0 **** 0.06
25259 H 171.05027712318045 120.51189708065361 84.24408848796854 H 0.0 **** 0.06
25260 H 169.44078021527105 120.95856320816326 84.8605018375286 H 0.0 **** 0.06
25261 C 40.84771353195984 92.94716412514616 8.218155211103351 C 0.0 **** -0.24
25262 H 41.76197141396841 92.46598330112595 8.566671956601056 H 0.0 **** 0.06
25263 H 40.1893406050859 93.13411360791606 9.06648848440409 H 0.0 **** 0.06
25264 H 40.344881961727594 92.29562905932404 7.503468682960943 H 0.0 **** 0.06
25265 H 41.09704956683075 93.89257404507772 7.735587074485181 H 0.0 **** 0.06
25266 C 57.22120134869496 108.51481281703285 120.41171406951823 C 0.0 **** -0.24
25267 H 56.42481094605989 108.77035651707838 119.7132327954432 H 0.0 **** 0.06
25268 H 56.983881664246866 108.91894914977327 121.39543889732765 H 0.0 **** 0.06
25269 H 58.162244475625485 108.93848488527378 120.06074088173968 H 0.0 **** 0.06
25270 H 57.312652962042705 107.42995916354162 120.47692565800354 H 0.0 **** 0.06
25271 C 88.07676681017766 157.83236760879862 24.71084182923316 C 0.0 **** -0.24
25272 H 88.03115218328018 157.27661227658615 25.647456308066566 H 0.0 **** 0.06
25273 H 89.00631886377364 158.40044227712045 24.67116160461083 H 0.0 **** 0.06
25274 H 87.2296329880743 158.51670664299857 24.653747482255 H 0.0 **** 0.06
25275 H 88.03966149016166 157.1372313617907 23.87289724697233 H 0.0 **** 0.06
25276 C 28.333787826264995 182.885036367247 17.62214738505378 C 0.0 **** -0.24
25277 H 29.410566915377615 182.9389404609302 17.784977124949194 H 0.0 **** 0.06
25278 H 27.822905141428976 182.84083399914314 18.585022478292274 H 0.0 **** 0.06
25279 H 28.09790906674027 181.9922056616384 17.043768715401228 H 0.0 **** 0.06
25280 H 28.00491368542663 183.76945219450903 17.076248297804966 H 0.0 **** 0.06
25281 C 41.84167573639223 162.20650501998148 4.210277253115635 C 0.0 **** -0.24
25282 H 42.37471570130003 161.257637193254 4.153105601547651 H 0.0 **** 0.06
25283 H 41.027742174707896 162.2101740621335 3.483959756168332 H 0.0 **** 0.06
25284 H 42.5284619742327 163.0241012520421 3.991000188641408 H 0.0 **** 0.06
25285 H 41.434260695028684 162.33356773049687 5.213668719723955 H 0.0 **** 0.06
25286 C 172.71405196498304 84.2236804582989 143.7034710547504 C 0.0 **** -0.24
25287 H 172.69055751569206 83.32942327481618 144.32703539629273 H 0.0 **** 0.06
25288 H 171.98406493634113 84.12394525883472 142.89899219332068 H 0.0 **** 0.06
25289 H 173.70967133071318 84.3428170120126 143.2772752095464 H 0.0 **** 0.06
25290 H 172.47090416151968 85.09597816950524 144.3090205387898 H 0.0 **** 0.06
25291 C 161.45849107795593 150.2147502008091 103.33142811789939 C 0.0 **** -0.24
25292 H 161.89836941324936 149.47392581249738 102.66405893297024 H 0.0 **** 0.06
25293 H 161.0996264262436 151.06176298044863 102.74668468952832 H 0.0 **** 0.06
25294 H 162.2123089761092 150.55652056837064 104.04109844262491 H 0.0 **** 0.06
25295 H 160.62589553554793 149.7668070143711 103.87387344052398 H 0.0 **** 0.06
25296 C 164.534476599168 32.49628330266586 87.68254446095472 C 0.0 **** -0.24
25297 H 164.4363026913079 31.914158895649905 86.7661993163174 H 0.0 **** 0.06
25298 H 165.58881341737788 32.701561248281735 87.87062217799081 H 0.0 **** 0.06
25299 H 164.11959510503786 31.931603151246293 88.51727077966598 H 0.0 **** 0.06
25300 H 163.9937715340885 33.4366267865401 87.57495947064524 H 0.0 **** 0.06
25301 C 118.38995927590507 120.34081716054162 44.79669018852053 C 0.0 **** -0.24
25302 H 117.92312321754274 120.19022955236183 43.822788830747584 H 0.0 **** 0.06
25303 H 118.07177747688233 119.55109447027935 45.47785154808466 H 0.0 **** 0.06
25304 H 118.08986463895708 121.30998454397685 45.19595973557284 H 0.0 **** 0.06
25305 H 119.4746508888396 120.31277625803556 44.68730460616348 H 0.0 **** 0.06
25306 C 58.52116843963731 45.5642621031792 113.7975196756206 C 0.0 **** -0.24
25307 H 58.949876882367576 46.27764001892211 113.0941070168513 H 0.0 **** 0.06
25308 H 59.00045862783061 44.59406881911133 113.66759175456167 H 0.0 **** 0.06
25309 H 57.451122850662415 45.46968182583339 113.61117487197373 H 0.0 **** 0.06
25310 H 58.68211234430393 45.916621349619334 114.81551542293272 H 0.0 **** 0.06
25311 C 35.47585051859967 42.038068050396035 93.2149300961491 C 0.0 **** -0.24
25312 H 35.62569390771766 40.95882080192659 93.24190591876057 H 0.0 **** 0.06
25313 H 36.35257364836616 42.51536702150632 92.77641370506025 H 0.0 **** 0.06
25314 H 35.32726647265119 42.409208189021626 94.22793112768694 H 0.0 **** 0.06
25315 H 34.59764324301486 42.268015803332176 92.61043492598633 H 0.0 **** 0.06
25316 C 168.1706626188609 63.55547606062066 107.21386946598271 C 0.0 **** -0.24
25317 H 168.50238523434228 64.11820135959312 108.08644250420618 H 0.0 **** 0.06
25318 H 167.5900123027614 62.6918164113374 107.53820815886182 H 0.0 **** 0.06
25319 H 169.0392642311274 63.21850096746569 106.64753616738109 H 0.0 **** 0.06
25320 H 167.5522294055416 64.19386626295798 106.5828118800684 H 0.0 **** 0.06
25321 C 49.629634882032846 164.74664631422726 174.68550288856977 C 0.0 **** -0.24
25322 H 48.57859801397723 164.46180185924976 174.737344103571 H 0.0 **** 0.06
25323 H 49.712195486760436 165.77025110486414 174.31989743726967 H 0.0 **** 0.06
25324 H 50.15503776282496 164.07476080463317 174.0068372586984 H 0.0 **** 0.06
25325 H 50.0728708207764 164.67831928776477 175.67886268142001 H 0.0 **** 0.06
25326 C 27.593065182373323 175.68613624235547 151.59668346761347 C 0.0 **** -0.24
25327 H 27.0301330081669 176.42208075808333 152.1696663368685 H 0.0 **** 0.06
25328 H 28.660598271095978 175.84444886969402 151.75316224015657 H 0.0 **** 0.06
25329 H 27.360689738909116 175.79498193323582 150.53738340218283 H 0.0 **** 0.06
25330 H 27.322026312332696 174.6831950173247 151.92727416116313 H 0.0 **** 0.06
25331 C 105.55806601171764 163.60759022362117 5.757237619202471 C 0.0 **** -0.24
25332 H 105.05009866925343 164.1327358894511 6.565241045362143 H 0.0 **** 0.06
25333 H 104.99619080785999 162.71041092052445 5.4965924040504035 H 0.0 **** 0.06
25334 H 106.5605501492717 163.3268957337079 6.0809960668185 H 0.0 **** 0.06
25335 H 105.62655819432939 164.25955649948617 4.886487278575402 H 0.0 **** 0.06
25336 C 158.4310274397024 72.36798202257967 85.3384349388806 C 0.0 **** -0.24
25337 H 157.81080332300556 71.92162772962952 86.11545182586713 H 0.0 **** 0.06
25338 H 159.31485625486877 72.81545262772015 85.79238981585695 H 0.0 **** 0.06
25339 H 157.8614488721299 73.13589185701468 84.8155218572366 H 0.0 **** 0.06
25340 H 158.73693357328096 71.59723895693432 84.63059460289776 H 0.0 **** 0.06
25341 C 45.9158854303419 115.91562025137159 64.48889055783997 C 0.0 **** -0.24
25342 H 45.548669704605345 115.46877776337249 63.56543901901648 H 0.0 **** 0.06
25343 H 45.39227751240368 115.47697270757345 65.33783191238518 H 0.0 **** 0.06
25344 H 45.73736368293734 116.9909732135244 64.46788174114408 H 0.0 **** 0.06
25345 H 46.985554934295536 115.72690668729399 64.58365195902891 H 0.0 **** 0.06
25346 C 45.60266537866346 50.434844070461565 83.82920209732816 C 0.0 **** -0.24
25347 H 45.23015520916687 51.21676089791197 83.16659917027567 H 0.0 **** 0.06
25348 H 46.30261586867999 50.867963328060625 84.54383723956292 H 0.0 **** 0.06
25349 H 46.11062132850276 49.671108592628826 83.23993878858847 H 0.0 **** 0.06
25350 H 44.76769862665384 49.98361801599819 84.36475687646994 H 0.0 **** 0.06
25351 C 110.25703177024417 74.18296911763458 7.582520463549429 C 0.0 **** -0.24
25352 H 110.76030714936593 75.00131604697874 7.067152079676845 H 0.0 **** 0.06
25353 H 109.23181468563433 74.10112014440045 7.221465012231931 H 0.0 **** 0.06
25354 H 110.25025065004286 74.38008132889757 8.655409648167876 H 0.0 **** 0.06
25355 H 110.78750417491926 73.25062768587107 7.3883636917084345 H 0.0 **** 0.06
25356 C 10.540199959058498 51.71028386187635 72.02440464394469 C 0.0 **** -0.24
25357 H 10.808623631004139 52.402941985861446 72.8214892039587 H 0.0 **** 0.06
25358 H 11.144186292044651 50.80577702692051 72.11103787096607 H 0.0 **** 0.06
25359 H 10.724681618017314 52.17874022739156 71.05835263669593 H 0.0 **** 0.06
25360 H 9.484756398062359 51.45154945518203 72.1079136496792 H 0.0 **** 0.06
25361 C 97.9060623184858 127.65486885189439 93.07532938354096 C 0.0 **** -0.24
25362 H 98.87543185949067 127.44459068423963 92.6242893306031 H 0.0 **** 0.06
25363 H 97.1856832186997 127.89634741595107 92.29312516237319 H 0.0 **** 0.06
25364 H 97.99838641747141 128.50046106274766 93.75677522318865 H 0.0 **** 0.06
25365 H 97.56418605515535 126.77965788482508 93.62755555109014 H 0.0 **** 0.06
25366 C 32.68964298444968 18.850727775353832 163.85115737590496 C 0.0 **** -0.24
25367 H 32.36925351468872 19.112214108137927 164.85954512024207 H 0.0 **** 0.06
25368 H 31.82430402460342 18.547789375402054 163.26151411291352 H 0.0 **** 0.06
25369 H 33.40424402028023 18.028741685402018 163.89869265160428 H 0.0 **** 0.06
25370 H 33.161416829414904 19.71627676022245 163.38452176685576 H 0.0 **** 0.06
25371 C 59.565434954353194 153.5602030914446 128.63925482807946 C 0.0 **** -0.24
25372 H 60.1961702782162 154.44225667601148 128.53063725551482 H 0.0 **** 0.06
25373 H 59.57998644685463 153.22863382002475 129.67809286453883 H 0.0 **** 0.06
25374 H 59.94234552530774 152.76327888110728 127.99761582817548 H 0.0 **** 0.06
25375 H 58.544013602921396 153.80619042550123 128.35023406962324 H 0.0 **** 0.06
25376 C 166.50906501981416 160.56684325448035 38.54518479234983 C 0.0 **** -0.24
25377 H 167.19192771355034 160.2984962738526 37.73864166235583 H 0.0 **** 0.06
25378 H 166.96939226964233 160.33054611794165 39.50416228509458 H 0.0 **** 0.06
25379 H 165.58196732656307 160.0046481873636 38.43725465217355 H 0.0 **** 0.06
25380 H 166.29511612553932 161.63488565178622 38.49785946195655 H 0.0 **** 0.06
25381 C 139.45114834247676 117.43759938325927 100.57289920904502 C 0.0 **** -0.24
25382 H 139.12149366483226 117.48693997484956 99.53530793456711 H 0.0 **** 0.06
25383 H 140.53825143371716 117.35299014512448 100.60487662818117 H 0.0 **** 0.06
25384 H 139.0044566900413 116.56843169767062 101.05494116429104 H 0.0 **** 0.06
25385 H 139.14154729234122 118.34256053665722 101.09584745531261 H 0.0 **** 0.06
25386 C 94.3373803332771 173.48968753251825 107.68476127826314 C 0.0 **** -0.24
25387 H 95.15815199044697 174.20423664202752 107.75296567539935 H 0.0 **** 0.06
25388 H 93.86214959299424 173.38820109025147 108.66104998450949 H 0.0 **** 0.06
25389 H 94.72427629559543 172.52116675095857 107.36589076329854 H 0.0 **** 0.06
25390 H 93.60601224961964 173.84575930159934 106.95983234201846 H 0.0 **** 0.06
25391 C 129.53753762104913 140.40917144410702 51.117076988357155 C 0.0 **** -0.24
25392 H 129.37727032808021 140.62584645753265 52.17302333432758 H 0.0 **** 0.06
25393 H 130.347789278535 141.03211541568157 50.73706587716937 H 0.0 **** 0.06
25394 H 128.62441930605422 140.61984958487034 50.56115342771126 H 0.0 **** 0.06
25395 H 129.80105474426608 139.35754242119015 50.998104209196086 H 0.0 **** 0.06
25396 C 5.015114233595966 137.8423691208286 18.307634343698197 C 0.0 **** -0.24
25397 H 4.903367019940276 138.87176585762177 18.649179800337663 H 0.0 **** 0.06
25398 H 6.053996621664055 137.533173131019 18.42193475029171 H 0.0 **** 0.06
25399 H 4.728832002851874 137.77596675981374 17.257947925446956 H 0.0 **** 0.06
25400 H 4.373377448897628 137.19155725275618 18.90202242318105 H 0.0 **** 0.06
25401 C 168.85635927669284 116.36680067501698 86.04106157260533 C 0.0 **** -0.24
25402 H 167.9290718301737 115.82841940517824 85.84944758102095 H 0.0 **** 0.06
25403 H 168.8005756395109 116.85383361579318 87.01543650229921 H 0.0 **** 0.06
25404 H 169.0060097632603 117.12000266069492 85.26654049434363 H 0.0 **** 0.06
25405 H 169.692017181479 115.66603189153204 86.03114310404983 H 0.0 **** 0.06
25406 C 151.61399152603363 12.11512590468012 48.13197103209188 C 0.0 **** -0.24
25407 H 152.2040925182592 11.653125907663657 48.92353289840378 H 0.0 **** 0.06
25408 H 150.56876360074023 12.157160588801972 48.43688251337579 H 0.0 **** 0.06
25409 H 151.70458328904238 11.52451407599726 47.22050125409078 H 0.0 **** 0.06
25410 H 151.98146701232636 13.125175755409053 47.94800512908995 H 0.0 **** 0.06
25411 C 75.7547500191618 176.25031340289044 41.660353689930616 C 0.0 **** -0.24
25412 H 76.57981336920238 175.92265672101718 41.02847481537469 H 0.0 **** 0.06
25413 H 75.63678112868524 177.3308855359896 41.57104744982064 H 0.0 **** 0.06
25414 H 75.96773358483125 175.9931919321686 42.69862434217447 H 0.0 **** 0.06
25415 H 74.83631354076681 175.7566264586318 41.3441987005547 H 0.0 **** 0.06
25416 C 31.51695627720801 94.79386926392941 50.64077017998545 C 0.0 **** -0.24
25417 H 31.981001576447852 94.61805799345804 51.610451406874915 H 0.0 **** 0.06
25418 H 31.41390474305547 95.86682948526165 50.476358721894144 H 0.0 **** 0.06
25419 H 30.532309357725524 94.32611899833329 50.618331061514596 H 0.0 **** 0.06
25420 H 32.14086624894958 94.36481345017346 49.8565917413182 H 0.0 **** 0.06
25421 C 139.72607311231337 173.4838001172946 1.956789029189622 C 0.0 **** -0.24
25422 H 140.61254943750941 173.81673528285847 1.4184952221471576 H 0.0 **** 0.06
25423 H 139.644745696511 174.02887335360114 2.8968110307369557 H 0.0 **** 0.06
25424 H 139.80525312529937 172.4162484178959 2.161594430541811 H 0.0 **** 0.06
25425 H 138.84009206462935 173.67176877082102 1.3493659803906155 H 0.0 **** 0.06
25426 C 22.79372913948791 183.1244648273497 40.18116875160334 C 0.0 **** -0.24
25427 H 23.76755050037272 182.95435858352718 40.641010247503814 H 0.0 **** 0.06
25428 H 22.929999528873964 183.4302350708763 39.14429543273985 H 0.0 **** 0.06
25429 H 22.26777323908641 183.90866505396372 40.72586661593914 H 0.0 **** 0.06
25430 H 22.21032450214952 182.20428034922318 40.21559146358824 H 0.0 **** 0.06
25431 C 17.11245080730805 44.638194648012586 22.033439148856985 C 0.0 **** -0.24
25432 H 16.806823623611763 43.879346926552046 22.754777876606738 H 0.0 **** 0.06
25433 H 18.200260830049615 44.66084694680353 21.96892877282906 H 0.0 **** 0.06
25434 H 16.746483657830083 45.612645662587624 22.355815655286733 H 0.0 **** 0.06
25435 H 16.695207566955162 44.397589968321824 21.05542849490891 H 0.0 **** 0.06
25436 C 164.34098143003257 105.5877608278354 40.387184484742946 C 0.0 **** -0.24
25437 H 164.4981900719751 104.60572475641219 39.939559647926046 H 0.0 **** 0.06
25438 H 165.22925842033032 106.201331951726 40.23783984833554 H 0.0 **** 0.06
25439 H 164.15133354625402 105.47405819641553 41.453960808747794 H 0.0 **** 0.06
25440 H 163.48344406227625 106.0680375978858 39.91482098434925 H 0.0 **** 0.06
25441 C 158.2861343644927 95.58811327874054 94.85625850592619 C 0.0 **** -0.24
25442 H 158.30302852023584 96.66053764768537 95.0536184663418 H 0.0 **** 0.06
25443 H 158.60271815991044 95.40210413922028 93.83008032554473 H 0.0 **** 0.06
25444 H 157.2732005588726 95.20966818391571 94.99873241494588 H 0.0 **** 0.06
25445 H 158.96367181288178 95.0822504431141 95.54397367658056 H 0.0 **** 0.06
25446 C 185.2425578900966 20.89947004717488 143.21156320238856 C 0.0 **** -0.24
25447 H 184.57074161847052 21.457388359375045 143.86357961955116 H 0.0 **** 0.06
25448 H 184.95483220536636 21.057982301382516 142.17263772937463 H 0.0 **** 0.06
25449 H 185.17819262490673 19.83702431452423 143.44821603186904 H 0.0 **** 0.06
25450 H 186.2650431525371 21.244101030960884 143.36285005711306 H 0.0 **** 0.06
25451 C 32.73410124351085 103.76140671928806 152.191874588429 C 0.0 **** -0.24
25452 H 33.00431781341797 104.8016533350438 152.3745364528117 H 0.0 **** 0.06
25453 H 31.698164275120575 103.59793805136457 152.4920811881915 H 0.0 **** 0.06
25454 H 33.38789560054329 103.10941797363063 152.77074328311704 H 0.0 **** 0.06
25455 H 32.84452408818481 103.53959079191037 151.13108628838978 H 0.0 **** 0.06
25456 C 114.49498449178238 29.17504849002404 58.422207036437015 C 0.0 **** -0.24
25457 H 115.56543155397075 28.96760396881629 58.42761454010531 H 0.0 **** 0.06
25458 H 114.29094741679206 30.049452750030866 59.03921302982907 H 0.0 **** 0.06
25459 H 113.95637733260479 28.315116149757017 58.82172811042912 H 0.0 **** 0.06
25460 H 114.16699456270005 29.366301334893734 57.4001858364049 H 0.0 **** 0.06
25461 C 122.27101332010699 5.534184026237995 127.3033560961794 C 0.0 **** -0.24
25462 H 122.37655296867558 6.328260927275096 126.56497503506291 H 0.0 **** 0.06
25463 H 122.24801425099855 4.568615063757704 126.79782371098521 H 0.0 **** 0.06
25464 H 121.34384837338388 5.6764915727105745 127.85885955801335 H 0.0 **** 0.06
25465 H 123.11472116164225 5.563743024672931 127.9927759282465 H 0.0 **** 0.06
25466 C 178.96439896738417 56.1430177865505 144.04491569535338 C 0.0 **** -0.24
25467 H 179.75476738241997 56.86484831388151 144.24938771647132 H 0.0 **** 0.06
25468 H 178.86089928503094 55.467917549513146 144.89472912346707 H 0.0 **** 0.06
25469 H 179.21869914574359 55.56897359838342 143.153453933837 H 0.0 **** 0.06
25470 H 178.0242608566054 56.66936938518421 143.88219915436142 H 0.0 **** 0.06
25471 C 159.9478664942761 172.33908017202467 25.032418321134713 C 0.0 **** -0.24
25472 H 159.2890620184355 173.1522633840405 24.72534320623646 H 0.0 **** 0.06
25473 H 159.40031641719003 171.39688067236642 24.999382090985648 H 0.0 **** 0.06
25474 H 160.29930117725002 172.5214020315649 26.04867163668294 H 0.0 **** 0.06
25475 H 160.80158421731252 172.28828547112465 24.356776917656077 H 0.0 **** 0.06
25476 C 159.81126455566164 25.975511454917296 178.44139310282677 C 0.0 **** -0.24
25477 H 160.69732219574306 25.402684400693488 178.71431502951555 H 0.0 **** 0.06
25478 H 160.10790128350462 26.980179372435884 178.1397535891001 H 0.0 **** 0.06
25479 H 159.13969306889229 26.036177528157964 179.29703128388823 H 0.0 **** 0.06
25480 H 159.30188477324052 25.48282529784416 177.6130834046395 H 0.0 **** 0.06
25481 C 160.69203091218714 9.656045439465828 113.32541412214785 C 0.0 **** -0.24
25482 H 159.89346016412023 9.016963362290369 112.9475818288371 H 0.0 **** 0.06
25483 H 161.63954085281006 9.117886876275179 113.279363374986 H 0.0 **** 0.06
25484 H 160.47974743046953 9.929414779846951 114.35853573476679 H 0.0 **** 0.06
25485 H 160.75518808313953 10.556923507436466 112.71609958079965 H 0.0 **** 0.06
25486 C 102.5489971853416 129.8288569987089 102.59594000912408 C 0.0 **** -0.24
25487 H 103.53589517078562 129.36745863609593 102.64050792161088 H 0.0 **** 0.06
25488 H 102.3080001763794 130.26530272109193 103.56571882894518 H 0.0 **** 0.06
25489 H 101.80640927356227 129.07184528386102 102.34360130426414 H 0.0 **** 0.06
25490 H 102.5461678983397 130.60842110989194 101.83400224313176 H 0.0 **** 0.06
25491 C 158.07010590286365 102.21918482341748 181.5329706960689 C 0.0 **** -0.24
25492 H 157.62527967882835 102.59877394423741 182.45297944587415 H 0.0 **** 0.06
25493 H 159.0457865078967 101.783782001067 181.7531845692336 H 0.0 **** 0.06
25494 H 158.18844398065258 103.03650733753567 180.82156478459055 H 0.0 **** 0.06
25495 H 157.41997071266076 101.45550966220513 181.10350719295513 H 0.0 **** 0.06
25496 C 55.29248001753105 80.64880830156123 112.49759129707637 C 0.0 **** -0.24
25497 H 55.74228745648239 80.2831489896921 113.42066762044406 H 0.0 **** 0.06
25498 H 54.74328165388229 79.83983681423443 112.01578256372186 H 0.0 **** 0.06
25499 H 56.07582880241232 81.00706165178732 111.8287807029477 H 0.0 **** 0.06
25500 H 54.60847732236843 81.46653483147581 112.72555622518921 H 0.0 **** 0.06
25501 C 30.256991314809824 63.968023052160405 29.687754564467696 C 0.0 **** -0.24
25502 H 29.191285678909722 63.986994797674484 29.461103030563265 H 0.0 **** 0.06
25503 H 30.687389135121208 63.03083422339587 29.33382491502141 H 0.0 **** 0.06
25504 H 30.401677111738096 64.0512286820124 30.76460097439235 H 0.0 **** 0.06
25505 H 30.748723066498016 64.80464142172313 29.19001066912142 H 0.0 **** 0.06
25506 C 146.6538402456501 120.11593518069212 116.86544741673852 C 0.0 **** -0.24
25507 H 146.42780894789001 119.62074963260646 115.92182172046314 H 0.0 **** 0.06
25508 H 146.37535693740998 119.46382507424916 117.6934104743675 H 0.0 **** 0.06
25509 H 146.09125269837926 121.04723721778343 116.93177338212489 H 0.0 **** 0.06
25510 H 147.72100118474611 120.33253167526239 116.91640679069017 H 0.0 **** 0.06
25511 C 63.95104165829224 144.6331091661502 31.59431886245534 C 0.0 **** -0.24
25512 H 63.82785491634206 143.78443432429447 32.26720474062199 H 0.0 **** 0.06
25513 H 64.7812729600584 145.25091380372876 31.937217957755593 H 0.0 **** 0.06
25514 H 63.035988925152736 145.22496896110056 31.586914043271918 H 0.0 **** 0.06
25515 H 64.15832232072916 144.27176923391633 30.587471047182873 H 0.0 **** 0.06
25516 C 95.12739906031698 138.61061743518133 155.9677555016276 C 0.0 **** -0.24
25517 H 95.77951652949531 137.94264700788824 156.53127719600076 H 0.0 **** 0.06
25518 H 95.55959288535422 138.79690200485902 154.98506333361746 H 0.0 **** 0.06
25519 H 95.02237807073391 139.55324773188102 156.50468852648726 H 0.0 **** 0.06
25520 H 94.14701452323771 138.14794244081037 155.852185678429 H 0.0 **** 0.06
25521 C 43.476175624294555 96.15986479664438 2.6205768318278615 C 0.0 **** -0.24
25522 H 43.395279347002344 96.78435196517704 3.510692526543693 H 0.0 **** 0.06
25523 H 44.3166677093262 95.47486770348895 2.7332507265592483 H 0.0 **** 0.06
25524 H 43.6373387821025 96.79183948284309 1.746893359234889 H 0.0 **** 0.06
25525 H 42.55661336513279 95.58919277206523 2.49244001163882 H 0.0 **** 0.06
25526 C 52.24071803912207 183.1477775644468 68.82744114577538 C 0.0 **** -0.24
25527 H 51.33021158487627 183.27654568676775 69.41274118215311 H 0.0 **** 0.06
25528 H 52.872481221685135 184.0292658383845 68.94036628456769 H 0.0 **** 0.06
25529 H 51.98124356702648 183.0193661572793 67.77669004921192 H 0.0 **** 0.06
25530 H 52.777945188037094 182.26735324117527 69.17998953026374 H 0.0 **** 0.06
25531 C 128.50284467997443 98.23726230451392 156.15097085823706 C 0.0 **** -0.24
25532 H 127.98420511512724 97.28185598157067 156.0704095310693 H 0.0 **** 0.06
25533 H 129.29558355876543 98.28344685444263 155.4026838277986 H 0.0 **** 0.06
25534 H 128.9377944340173 98.33195084162547 157.14614580062585 H 0.0 **** 0.06
25535 H 127.79687184852283 99.05036923939984 155.98341840417703 H 0.0 **** 0.06
25536 C 67.6182256662916 85.89471168592394 81.0876638946148 C 0.0 **** -0.24
25537 H 68.08918543771287 85.17303649734254 81.75592597348655 H 0.0 **** 0.06
25538 H 67.7645191980609 86.90123378560293 81.47941869693476 H 0.0 **** 0.06
25539 H 66.55181949249092 85.6818886014662 81.01855853745835 H 0.0 **** 0.06
25540 H 68.06822170258069 85.81937988778492 80.09828427860786 H 0.0 **** 0.06
25541 C 23.469489655424496 100.62752777973289 2.4973491832118953 C 0.0 **** -0.24
25542 H 24.414674399409307 101.13466317285825 2.306396756308345 H 0.0 **** 0.06
25543 H 23.48062678529604 99.64683805416975 2.0206647860396743 H 0.0 **** 0.06
25544 H 22.64985503924858 101.21983612606148 2.090819630812348 H 0.0 **** 0.06
25545 H 23.33220546935611 100.50780440594768 3.5723546468846052 H 0.0 **** 0.06
25546 C 100.03342915698398 127.2501643346559 125.25648521129983 C 0.0 **** -0.24
25547 H 99.80734281911457 127.36762756930368 126.315972683079 H 0.0 **** 0.06
25548 H 99.97499929958191 128.2200618833321 124.76268863748749 H 0.0 **** 0.06
25549 H 99.31351985610603 126.56824403653367 124.80490283041371 H 0.0 **** 0.06
25550 H 101.03965299943293 126.84369024829634 125.14321200422626 H 0.0 **** 0.06
25551 C 16.51479291262617 68.1068609362581 109.33828509244115 C 0.0 **** -0.24
25552 H 17.588252127672497 67.93880865342027 109.42341499145307 H 0.0 **** 0.06
25553 H 15.979551735927643 67.27807078514451 109.80092762659685 H 0.0 **** 0.06
25554 H 16.24024596085132 68.17316141553516 108.2851665810942 H 0.0 **** 0.06
25555 H 16.25188022288698 69.03721674864482 109.841535864231 H 0.0 **** 0.06
25556 C 145.29798832513785 38.033829704857965 108.07020946369414 C 0.0 **** -0.24
25557 H 145.27826966866525 39.025838537063464 108.52018944793934 H 0.0 **** 0.06
25558 H 146.24935662780342 37.884605379289155 107.55905505447288 H 0.0 **** 0.06
25559 H 144.48206018718224 37.943285288116385 107.35414221084898 H 0.0 **** 0.06
25560 H 145.18156385051867 37.27995373848728 108.84964885490496 H 0.0 **** 0.06
25561 C 141.8304921323542 173.26434714387815 163.73910566213385 C 0.0 **** -0.24
25562 H 141.3456880947008 173.58543075956715 162.817008743579 H 0.0 **** 0.06
25563 H 142.13328234851696 172.22116944472072 163.6457581989364 H 0.0 **** 0.06
25564 H 141.13521899777885 173.36796026620198 164.57094392937503 H 0.0 **** 0.06
25565 H 142.7103919566879 173.8824779567966 163.9202519723982 H 0.0 **** 0.06
25566 C 42.91189339621525 128.6726298496962 142.78587858406877 C 0.0 **** -0.24
25567 H 43.67736675121992 128.6918884480915 142.01022466068463 H 0.0 **** 0.06
25568 H 43.36864148408358 128.8897686243123 143.75259330644747 H 0.0 **** 0.06
25569 H 42.44881416109297 127.68672084670833 142.81519417171927 H 0.0 **** 0.06
25570 H 42.15313286645943 129.42454884268165 142.5657452479128 H 0.0 **** 0.06
25571 C 163.5401933856977 110.64202861302704 4.661626540903399 C 0.0 **** -0.24
25572 H 164.0860449185518 109.72183578933596 4.868727052990266 H 0.0 **** 0.06
25573 H 162.53288036434785 110.56640594262467 5.0705397832434755 H 0.0 **** 0.06
25574 H 163.48505853203517 110.79717218052053 3.584577813637395 H 0.0 **** 0.06
25575 H 164.05802992635233 111.48275624128058 5.124773137123839 H 0.0 **** 0.06
25576 C 128.62453070248216 179.01556209521183 39.20056314170802 C 0.0 **** -0.24
25577 H 128.179001218378 179.44006987679205 40.10066480528721 H 0.0 **** 0.06
25578 H 127.83522333414663 178.65685952311978 38.539450653444675 H 0.0 **** 0.06
25579 H 129.27570517478944 178.1856283460616 39.47411776275345 H 0.0 **** 0.06
25580 H 129.20778450296132 179.78174637921467 38.688798512496874 H 0.0 **** 0.06
25581 C 38.703933166956745 149.74660667740267 1.4244596997773655 C 0.0 **** -0.24
25582 H 38.40346587066597 148.96285945659068 2.1200753040037768 H 0.0 **** 0.06
25583 H 39.68471058590883 149.50978226158287 1.0128807928852908 H 0.0 **** 0.06
25584 H 38.750534345285985 150.69980872274607 1.951261900521807 H 0.0 **** 0.06
25585 H 37.976372095315284 149.81364420540257 0.6159591088562237 H 0.0 **** 0.06
25586 C 105.87445539452678 33.52614317098113 62.44045986379433 C 0.0 **** -0.24
25587 H 104.96616867962562 33.691965224069975 61.85952294844461 H 0.0 **** 0.06
25588 H 106.74568145155733 33.72713772709042 61.81755241239648 H 0.0 **** 0.06
25589 H 105.90171594361782 32.49113433420669 62.781739722986714 H 0.0 **** 0.06
25590 H 105.88072971688213 34.193330301595665 63.30227673761787 H 0.0 **** 0.06
25591 C 88.44577797092738 162.95408219328047 138.93013950962 C 0.0 **** -0.24
25592 H 89.37755621195616 162.4529444233897 139.1927735018985 H 0.0 **** 0.06
25593 H 87.97209153033008 162.42847107370446 138.10059476266184 H 0.0 **** 0.06
25594 H 88.65725880264624 163.98282045552315 138.63652779864674 H 0.0 **** 0.06
25595 H 87.77812250734179 162.95258646283696 139.7917016413336 H 0.0 **** 0.06
25596 C 55.59003712411521 78.28464514223607 163.320733625122 C 0.0 **** -0.24
25597 H 55.74894559878146 78.29924963210365 164.3989493579926 H 0.0 **** 0.06
25598 H 55.125779824032946 77.34005966837032 163.03555678555256 H 0.0 **** 0.06
25599 H 56.54791606870165 78.38743727107536 162.81214239839574 H 0.0 **** 0.06
25600 H 54.93792941308716 79.11079712268939 163.03846463027446 H 0.0 **** 0.06
25601 C 113.42315168579688 173.44262606574853 62.86037291891999 C 0.0 **** -0.24
25602 H 112.97024643723546 173.30405725218966 61.87877887005858 H 0.0 **** 0.06
25603 H 112.63966446752676 173.50207277869404 63.616264608628114 H 0.0 **** 0.06
25604 H 114.00421810650226 174.36521753094485 62.86508295299386 H 0.0 **** 0.06
25605 H 114.07794638406466 172.5998956081856 63.08095086424106 H 0.0 **** 0.06
25606 C 172.51512327299034 154.64441925225898 177.50549039675002 C 0.0 **** -0.24
25607 H 171.74572791369891 155.4167580737399 177.51825372059915 H 0.0 **** 0.06
25608 H 172.5168709054085 154.15156302591353 176.53308458713167 H 0.0 **** 0.06
25609 H 172.30619920210142 153.91045850755995 178.28407869108264 H 0.0 **** 0.06
25610 H 173.48920173963893 155.0988663006978 177.68487648893532 H 0.0 **** 0.06
25611 C 78.37521127201362 22.081746051215816 27.5370902437123 C 0.0 **** -0.24
25612 H 78.49724311567955 21.181547138427504 28.139446873381388 H 0.0 **** 0.06
25613 H 79.27585290007 22.69191099130353 27.60929675981133 H 0.0 **** 0.06
25614 H 77.52039298941762 22.650365762785952 27.903321990307347 H 0.0 **** 0.06
25615 H 78.20748839819349 21.802261590137107 26.4967134611026 H 0.0 **** 0.06
25616 C 34.91047998512062 11.909209521807874 104.12525641137064 C 0.0 **** -0.24
25617 H 34.09813787423684 12.595255039246261 104.36351086959685 H 0.0 **** 0.06
25618 H 35.154652866941746 11.988787793099682 103.06605611882863 H 0.0 **** 0.06
25619 H 34.60316688484596 10.888811657734784 104.35292987370177 H 0.0 **** 0.06
25620 H 35.7875967748171 12.164991458857152 104.721233044064 H 0.0 **** 0.06
25621 C 167.3467650705042 152.08772763931717 47.680333544297866 C 0.0 **** -0.24
25622 H 166.39123138807204 151.92883461253763 48.18095692679344 H 0.0 **** 0.06
25623 H 168.10027835135324 151.43181475092717 48.11862617615145 H 0.0 **** 0.06
25624 H 167.65199351193132 153.12642455444427 47.802003793571714 H 0.0 **** 0.06
25625 H 167.2413923265736 151.86209665145327 46.61861294353895 H 0.0 **** 0.06
25626 C 9.275416683713388 105.61351625162092 104.12768576971179 C 0.0 **** -0.24
25627 H 8.961251523678243 106.65691547609174 104.12123154299171 H 0.0 **** 0.06
25628 H 8.742383550849524 105.07867451551454 104.9150404606688 H 0.0 **** 0.06
25629 H 10.3481400720882 105.55806986668631 104.31217855374184 H 0.0 **** 0.06
25630 H 9.048674317310429 105.15983528975886 103.16273247858835 H 0.0 **** 0.06
25631 C 166.6410529243692 113.59861311126328 6.063192430695352 C 0.0 **** -0.24
25632 H 166.7684060762123 112.64093028602953 6.566517484531516 H 0.0 **** 0.06
25633 H 165.63984723245068 113.9816022528881 6.259856700179796 H 0.0 **** 0.06
25634 H 166.77542151858913 113.46571530928016 4.989236359451638 H 0.0 **** 0.06
25635 H 167.38053687022466 114.30620459685527 6.437159178618657 H 0.0 **** 0.06
25636 C 47.32179196147402 110.95683208694352 136.18457272220525 C 0.0 **** -0.24
25637 H 47.35845446365653 111.93193371151789 135.69906366917166 H 0.0 **** 0.06
25638 H 47.589814000146504 110.18275780460353 135.46638644852595 H 0.0 **** 0.06
25639 H 46.31331208620236 110.77409675974816 136.55680856998265 H 0.0 **** 0.06
25640 H 48.02422406686412 110.93928679695203 137.01792538803448 H 0.0 **** 0.06
25641 C 39.28477485325966 66.12783424249105 58.52548575554755 C 0.0 **** -0.24
25642 H 38.669236358745266 66.92852795091468 58.11449630281042 H 0.0 **** 0.06
25643 H 38.901992684466094 65.16515657349726 58.186567061840094 H 0.0 **** 0.06
25644 H 39.252241799853664 66.1685837523492 59.61503680256952 H 0.0 **** 0.06
25645 H 40.31361673620444 66.25026538795281 58.187430508673074 H 0.0 **** 0.06
25646 C 72.29530799474458 131.49558070585567 130.85690577802416 C 0.0 **** -0.24
25647 H 71.54144651783372 130.74875023740424 131.10799841663624 H 0.0 **** 0.06
25648 H 72.03038987492153 131.97530799831412 129.91472613702535 H 0.0 **** 0.06
25649 H 73.26693519421946 131.01165017890975 130.7580716167493 H 0.0 **** 0.06
25650 H 72.34144695707596 132.24443214746947 131.64728610771914 H 0.0 **** 0.06
25651 C 26.005040916650273 153.7142025222584 10.307270353475246 C 0.0 **** -0.24
25652 H 26.31914917123214 154.62313396501094 9.794772563735762 H 0.0 **** 0.06
25653 H 26.821678934677436 152.9918849068661 10.298051425478207 H 0.0 **** 0.06
25654 H 25.139889821159557 153.2898659970083 9.796824976128732 H 0.0 **** 0.06
25655 H 25.738799584319196 153.9501023830455 11.337368484881495 H 0.0 **** 0.06
25656 C 144.91654077822514 154.47040568055445 13.674151805918655 C 0.0 **** -0.24
25657 H 145.2671646664233 153.44888835669326 13.527425510147708 H 0.0 **** 0.06
25658 H 145.6223011088721 155.16501406625412 13.217524021202479 H 0.0 **** 0.06
25659 H 144.8417180435537 154.67823719128947 14.741667609863356 H 0.0 **** 0.06
25660 H 143.93790918750784 154.58887327377488 13.209780203898418 H 0.0 **** 0.06
25661 C 23.554944371942753 96.9004996233492 166.45367884375412 C 0.0 **** -0.24
25662 H 24.508439861197147 96.75609039722256 165.94599323044488 H 0.0 **** 0.06
25663 H 23.271958151178268 95.97971839366751 166.96330525367213 H 0.0 **** 0.06
25664 H 22.789998803806924 97.16127119237696 165.72145561326565 H 0.0 **** 0.06
25665 H 23.649657371095017 97.70593888086965 167.1825892881725 H 0.0 **** 0.06
25666 C 67.45891552779928 96.91265291126099 114.8639218175443 C 0.0 **** -0.24
25667 H 68.1488117688808 97.35809242402642 114.14704303780847 H 0.0 **** 0.06
25668 H 66.48215149403106 97.38958154701815 114.77221845153183 H 0.0 **** 0.06
25669 H 67.84091522380949 97.05746653670771 115.87402655826084 H 0.0 **** 0.06
25670 H 67.36278252168667 95.84606127549297 114.66024291128154 H 0.0 **** 0.06
25671 C 146.51568951422135 177.2806511528203 86.6090040411831 C 0.0 **** -0.24
25672 H 146.2902949444043 177.21010708919886 87.6731371097412 H 0.0 **** 0.06
25673 H 145.59819501045865 177.147392879362 86.03430370695976 H 0.0 **** 0.06
25674 H 147.2312961185769 176.50518081191265 86.33796110737042 H 0.0 **** 0.06
25675 H 146.94126153180542 178.26029461468198 86.39232801509057 H 0.0 **** 0.06
25676 C 70.97659423284313 156.65466896341013 1.134919013280296 C 0.0 **** -0.24
25677 H 70.84783872610899 155.9467106103305 0.3159560333864988 H 0.0 **** 0.06
25678 H 70.24385104503739 157.45574967189725 1.041343027744233 H 0.0 **** 0.06
25679 H 71.98190635185205 157.0745370937064 1.096805144654752 H 0.0 **** 0.06
25680 H 70.83396385659466 156.14008597342348 2.0845401251872318 H 0.0 **** 0.06
25681 C 174.64585768229938 37.65229457113057 151.91234345051055 C 0.0 **** -0.24
25682 H 174.71175436225602 37.41242869547884 150.85071009888517 H 0.0 **** 0.06
25683 H 174.22414939749575 38.65011468657241 152.03320495257222 H 0.0 **** 0.06
25684 H 175.64188587838532 37.62078230257487 152.35408112731625 H 0.0 **** 0.06
25685 H 174.00446524824852 36.923580846898034 152.40883658936633 H 0.0 **** 0.06
25686 C 79.64298388023649 31.00924116560624 83.74226024125522 C 0.0 **** -0.24
25687 H 79.65771125024754 31.477463084029267 84.72615286134112 H 0.0 **** 0.06
25688 H 80.46556084527758 31.400625150375305 83.14156386266279 H 0.0 **** 0.06
25689 H 78.6963348840298 31.22995736964384 83.24850482393919 H 0.0 **** 0.06
25690 H 79.75352099122685 29.93065736880574 83.85093353851306 H 0.0 **** 0.06
25691 C 83.87369847135788 79.0828126793316 10.244689693697637 C 0.0 **** -0.24
25692 H 83.2153849591173 79.83181316694993 9.806689801101186 H 0.0 **** 0.06
25693 H 83.80940117024954 79.13488234011675 11.332499889450844 H 0.0 **** 0.06
25694 H 84.90013755487271 79.27356411428678 9.931296868310937 H 0.0 **** 0.06
25695 H 83.57018308163289 78.0905889300227 9.909591464883817 H 0.0 **** 0.06
25696 C 73.44366048501308 147.16486538028562 142.15470867981907 C 0.0 **** -0.24
25697 H 72.99413816574094 147.97246719245294 141.57671355242684 H 0.0 **** 0.06
25698 H 72.76497416980163 146.31097192987727 142.1743879682939 H 0.0 **** 0.06
25699 H 73.62712886350323 147.5060760630829 143.17371211256318 H 0.0 **** 0.06
25700 H 74.38638379896497 146.86993560180446 141.69498646320352 H 0.0 **** 0.06
25701 C 157.80990617061025 179.03543764361595 79.7017076776919 C 0.0 **** -0.24
25702 H 158.22989556928235 179.72012639053034 80.4395434486346 H 0.0 **** 0.06
25703 H 158.58982014321862 178.7343570669211 79.00163334766609 H 0.0 **** 0.06
25704 H 157.00779282409954 179.53458899475245 79.15857191455359 H 0.0 **** 0.06
25705 H 157.4141720977379 178.1548471089828 80.20681973892107 H 0.0 **** 0.06
25706 C 90.12044390193451 171.39968124071564 108.37800513879723 C 0.0 **** -0.24
25707 H 90.7865244734172 171.76198016676761 107.5949294563621 H 0.0 **** 0.06
25708 H 89.77454825171627 172.24048398646784 108.97983760905198 H 0.0 **** 0.06
25709 H 90.65718730263849 170.69498531294877 109.01269287303002 H 0.0 **** 0.06
25710 H 89.26441038231222 170.90090573368164 107.92431035927235 H 0.0 **** 0.06
25711 C 101.52957955936074 24.654812604194603 35.86792381218528 C 0.0 **** -0.24
25712 H 102.58499637267607 24.841989141150407 35.66649468746033 H 0.0 **** 0.06
25713 H 100.92121230524128 25.166975731671528 35.12182354912231 H 0.0 **** 0.06
25714 H 101.27836407137806 25.02895090732204 36.86090150400581 H 0.0 **** 0.06
25715 H 101.33632293788042 23.583916472381475 35.82330690640845 H 0.0 **** 0.06
25716 C 47.69413104199384 34.748016752404226 108.51618109290013 C 0.0 **** -0.24
25717 H 47.065470998040325 35.54618555502566 108.9108803128081 H 0.0 **** 0.06
25718 H 48.696151029578544 35.134866437768096 108.32801453534 H 0.0 **** 0.06
25719 H 47.2665232354899 34.37707775840971 107.58517402099733 H 0.0 **** 0.06
25720 H 47.74860444860229 33.935654469312 109.24063573131184 H 0.0 **** 0.06
25721 C 18.612453736319054 165.01923761203304 134.19297639711328 C 0.0 **** -0.24
25722 H 18.012903599132642 164.31597438991645 133.61475858054666 H 0.0 **** 0.06
25723 H 19.27271252254019 165.57110876920038 133.52344302151369 H 0.0 **** 0.06
25724 H 19.210229340980675 164.47183803091067 134.9220637714114 H 0.0 **** 0.06
25725 H 17.954346835358336 165.71577440150796 134.71251963236392 H 0.0 **** 0.06
25726 C 53.817411781017256 168.65143235124324 150.4552022400091 C 0.0 **** -0.24
25727 H 54.59550566984086 169.05963270292398 149.81014043074128 H 0.0 **** 0.06
25728 H 53.75083550099794 169.2479395991554 151.36587567316778 H 0.0 **** 0.06
25729 H 54.06214656121335 167.6213983912786 150.7121949684108 H 0.0 **** 0.06
25730 H 52.86160945141927 168.67856937184231 149.93187743304347 H 0.0 **** 0.06
25731 C 12.5155984724841 142.90517049413043 90.86384060976098 C 0.0 **** -0.24
25732 H 11.609521429804829 143.50603686787608 90.9451632381373 H 0.0 **** 0.06
25733 H 12.267259156188743 141.8533440075724 91.00737806842903 H 0.0 **** 0.06
25734 H 13.228751899376391 143.21815907101765 91.62571768422396 H 0.0 **** 0.06
25735 H 12.955547452130872 143.04306133212526 89.87658666370362 H 0.0 **** 0.06
25736 C 58.39448611884133 90.04191168781351 152.29572944359023 C 0.0 **** -0.24
25737 H 58.94300474765302 90.66099937471127 153.0055597828345 H 0.0 **** 0.06
25738 H 58.42527671437719 89.00118896973059 152.62222383787005 H 0.0 **** 0.06
25739 H 58.85124195259806 90.12723095669035 151.3099150164049 H 0.0 **** 0.06
25740 H 57.35822603279156 90.37675951704817 152.24611758632432 H 0.0 **** 0.06
25741 C 159.09987976403357 74.1018138708295 3.1550341606932193 C 0.0 **** -0.24
25742 H 158.1641339637265 74.47264753832758 2.737938815632731 H 0.0 **** 0.06
25743 H 159.93876422974088 74.56960701464978 2.6387340384258096 H 0.0 **** 0.06
25744 H 159.1518152741665 73.01954798662442 3.025629032702483 H 0.0 **** 0.06
25745 H 159.14532397193818 74.34270425630318 4.216750219911887 H 0.0 **** 0.06
25746 C 68.40272165425881 31.24394802909501 43.59151515818283 C 0.0 **** -0.24
25747 H 68.71444410028435 30.60417386998506 44.41800686503217 H 0.0 **** 0.06
25748 H 68.08465471078105 30.62400461410533 42.75271067005613 H 0.0 **** 0.06
25749 H 69.23874368975169 31.87189796558775 43.2826391144356 H 0.0 **** 0.06
25750 H 67.57413315612831 31.873782394815294 43.912980705923985 H 0.0 **** 0.06
25751 C 159.70258915301198 63.17471505091399 27.849686277611 C 0.0 **** -0.24
25752 H 159.27736917761158 63.359804297919695 28.836465038881045 H 0.0 **** 0.06
25753 H 160.13300629173392 62.17344818274751 27.82218864664452 H 0.0 **** 0.06
25754 H 160.4796603053116 63.910700130379766 27.64534408982388 H 0.0 **** 0.06
25755 H 158.91833206015286 63.254698969023934 27.09616203986519 H 0.0 **** 0.06
25756 C 125.01438933580397 164.88988251468632 41.07110674642446 C 0.0 **** -0.24
25757 H 126.06787270903197 165.12557272606935 40.9213360465058 H 0.0 **** 0.06
25758 H 124.4373757418955 165.24749789638673 40.21808275856577 H 0.0 **** 0.06
25759 H 124.65939407899117 165.37590432624063 41.98030834614835 H 0.0 **** 0.06
25760 H 124.89353368721868 163.81091458630925 41.165919597290056 H 0.0 **** 0.06
25761 C 167.89472858499326 28.14424950737373 18.41494097361541 C 0.0 **** -0.24
25762 H 166.89213177698898 27.992642898085194 18.81421960767988 H 0.0 **** 0.06
25763 H 168.35269227604357 27.176267065357024 18.208582929032225 H 0.0 **** 0.06
25764 H 168.49837595856562 28.684044722753583 19.144358090252517 H 0.0 **** 0.06
25765 H 167.83596671406542 28.722330517008288 17.492654274405368 H 0.0 **** 0.06
25766 C 26.55090372173754 131.51204067236682 179.62031203407062 C 0.0 **** -0.24
25767 H 26.69384245455649 130.92786401922638 178.71100156420025 H 0.0 **** 0.06
25768 H 26.475698029520913 130.84069182996427 180.4759838226049 H 0.0 **** 0.06
25769 H 25.636118667858284 132.0978211666038 179.5363069483211 H 0.0 **** 0.06
25770 H 27.3999348476965 132.182786683424 179.75824078544565 H 0.0 **** 0.06
25771 C 69.16865631789422 113.80329508593955 19.087180727539504 C 0.0 **** -0.24
25772 H 70.16003530642942 113.82167748865992 18.634278799703793 H 0.0 **** 0.06
25773 H 68.62513276970942 112.92567951593647 18.736529278128046 H 0.0 **** 0.06
25774 H 68.62462921749228 114.70464945339619 18.806850290302066 H 0.0 **** 0.06
25775 H 69.26712057377311 113.76123101414704 20.17192529112299 H 0.0 **** 0.06
25776 C 77.57464074471615 56.39400343239133 83.9203166547952 C 0.0 **** -0.24
25777 H 77.85979896229954 57.40408739341167 83.6264569232722 H 0.0 **** 0.06
25778 H 78.41478075269336 55.718000862493625 83.75824358504512 H 0.0 **** 0.06
25779 H 76.72538413877169 56.068343337521924 83.31967026778015 H 0.0 **** 0.06
25780 H 77.2985088383578 56.38551559877244 84.9738979032044 H 0.0 **** 0.06
25781 C 24.917253702116994 159.23634511397591 29.375912553518333 C 0.0 **** -0.24
25782 H 25.160065332585305 158.41829548122027 30.054664859293553 H 0.0 **** 0.06
25783 H 23.982251554937477 159.0142620932839 28.860333741614966 H 0.0 **** 0.06
25784 H 25.717253651670887 159.35150852058158 28.645101486919486 H 0.0 **** 0.06
25785 H 24.808408254604387 160.15937822804926 29.94463558089518 H 0.0 **** 0.06
25786 C 0.9161108487720782 109.40978080932189 168.62525016460347 C 0.0 **** -0.24
25787 H 0.5050077918041893 108.40021267652605 168.58721249873136 H 0.0 **** 0.06
25788 H 0.5295045233028475 109.92548674729335 169.50512875564618 H 0.0 **** 0.06
25789 H 0.6236269420918106 109.95387684105935 167.72700295807257 H 0.0 **** 0.06
25790 H 2.003074841401798 109.35773186812241 168.68112977088953 H 0.0 **** 0.06
25791 C 146.73809942074342 165.19005378332395 54.34415972825656 C 0.0 **** -0.24
25792 H 145.81702776263757 165.75383609286712 54.19559029632114 H 0.0 **** 0.06
25793 H 147.4478944741404 165.4403015689898 53.55536989311372 H 0.0 **** 0.06
25794 H 146.5198073755439 164.12218285690082 54.3118695754946 H 0.0 **** 0.06
25795 H 147.1662590298879 165.44392910279234 55.31392518307513 H 0.0 **** 0.06
25796 C 36.92292369280557 46.981616178491606 108.36213366235626 C 0.0 **** -0.24
25797 H 37.88506161443735 46.729676196951516 107.91581960752973 H 0.0 **** 0.06
25798 H 36.86994228917675 48.057518943014315 108.52778259307763 H 0.0 **** 0.06
25799 H 36.81767983372998 46.46209854316618 109.31474298850821 H 0.0 **** 0.06
25800 H 36.119450052865545 46.67711960554573 107.6910864789736 H 0.0 **** 0.06
25801 C 138.64178297928026 64.35728295407226 143.839507349551 C 0.0 **** -0.24
25802 H 138.02364758903633 65.1499916085475 143.4179756268014 H 0.0 **** 0.06
25803 H 139.03121749763608 63.73370166928352 143.0340264184862 H 0.0 **** 0.06
25804 H 138.04124217353848 63.74679410633645 144.51336301211995 H 0.0 **** 0.06
25805 H 139.47165381674336 64.79869932173943 144.3913989576671 H 0.0 **** 0.06
25806 C 178.5549351060441 82.25782145027264 52.46040054245765 C 0.0 **** -0.24
25807 H 177.5016345500589 82.4407744290661 52.246065458761734 H 0.0 **** 0.06
25808 H 179.07967721941256 82.03141068489545 51.53207880388857 H 0.0 **** 0.06
25809 H 178.6447915540514 81.4149499748101 53.144637944870965 H 0.0 **** 0.06
25810 H 178.99099161828167 83.14622042560416 52.917509225404615 H 0.0 **** 0.06
25811 C 7.692505240672574 116.8248457604344 173.6364312136154 C 0.0 **** -0.24
25812 H 7.824646471942657 115.81505102277511 174.02421160460963 H 0.0 **** 0.06
25813 H 6.814774210045982 117.27868442299008 174.0982559726471 H 0.0 **** 0.06
25814 H 7.554936764582521 116.78376879297606 172.55578188654573 H 0.0 **** 0.06
25815 H 8.574255318804518 117.4217521366438 173.8675067815548 H 0.0 **** 0.06
25816 C 73.54039715549484 99.94406544136844 71.80248690828299 C 0.0 **** -0.24
25817 H 72.61227303121876 99.51480126444243 72.17931741291271 H 0.0 **** 0.06
25818 H 74.29696981539624 99.1625268059103 71.72699151353815 H 0.0 **** 0.06
25819 H 73.88515613077251 100.71913678220027 72.48676464582422 H 0.0 **** 0.06
25820 H 73.36637956607328 100.37911937205261 70.81824693569145 H 0.0 **** 0.06
25821 C 96.85445394159804 147.59102134082553 34.437105853543244 C 0.0 **** -0.24
25822 H 97.82000744837593 147.86697629238253 34.86000493532492 H 0.0 **** 0.06
25823 H 96.1905630542034 148.45633259524303 34.454302599044354 H 0.0 **** 0.06
25824 H 96.41694327702318 146.78600693406887 35.02738594077846 H 0.0 **** 0.06
25825 H 96.9903865839671 147.2567309037672 33.40876613634305 H 0.0 **** 0.06
25826 C 60.04649220807825 168.94820536340148 88.70367269784698 C 0.0 **** -0.24
25827 H 60.57438104670696 168.74596739994644 89.6358065679387 H 0.0 **** 0.06
25828 H 59.41918886631399 168.09336538407115 88.44907789325286 H 0.0 **** 0.06
25829 H 60.769526454082936 169.11866532596378 87.90611126480941 H 0.0 **** 0.06
25830 H 59.42221308963997 169.83424860087143 88.82480634575519 H 0.0 **** 0.06
25831 C 30.497749433145003 149.08081668941477 85.7300325628892 C 0.0 **** -0.24
25832 H 30.686982548383213 148.49197163579726 86.6275684644291 H 0.0 **** 0.06
25833 H 30.25845767551793 148.41307366854585 84.90196427208645 H 0.0 **** 0.06
25834 H 31.384786133153767 149.6629672704915 85.48351092575656 H 0.0 **** 0.06
25835 H 29.659390668959517 149.75454993931845 85.90869836285403 H 0.0 **** 0.06
25836 C 84.9870316273823 94.67616278448135 112.85261444515777 C 0.0 **** -0.24
25837 H 84.4162808805555 95.45404867655874 112.34359525777086 H 0.0 **** 0.06
25838 H 85.64699809413487 95.13496214359974 113.58979678920082 H 0.0 **** 0.06
25839 H 85.58201253404509 94.12628736601245 112.12326602818575 H 0.0 **** 0.06
25840 H 84.3015062945814 93.99218538014337 113.35269872359856 H 0.0 **** 0.06
25841 C 33.82689485416921 101.79910333554297 18.066736294565686 C 0.0 **** -0.24
25842 H 34.17321368826268 102.81426735089734 18.260603903368406 H 0.0 **** 0.06
25843 H 34.675882603073944 101.1700589890677 17.7995072349226 H 0.0 **** 0.06
25844 H 33.11109996929315 101.81139668470998 17.24462746578874 H 0.0 **** 0.06
25845 H 33.34638150863498 101.4016443500965 18.96044968834846 H 0.0 **** 0.06
25846 C 4.893758237799204 110.24487187668602 36.75250098742484 C 0.0 **** -0.24
25847 H 5.03581008473828 110.75735928498078 37.70376608353786 H 0.0 **** 0.06
25848 H 5.757477321365833 110.42406322962195 36.111491479334916 H 0.0 **** 0.06
25849 H 3.9954536612917906 110.62307840876936 36.266271588552215 H 0.0 **** 0.06
25850 H 4.788709170999617 109.17459280134388 36.92851730242823 H 0.0 **** 0.06
25851 C 117.03574157225529 75.50006302428125 8.126223519923627 C 0.0 **** -0.24
25852 H 117.15702870889555 74.98497375560463 7.173574672872917 H 0.0 **** 0.06
25853 H 116.70333680604529 76.52215299530162 7.946667098581514 H 0.0 **** 0.06
25854 H 117.98999074190868 75.51421267023342 8.653851892627245 H 0.0 **** 0.06
25855 H 116.29430060753947 74.97727910372924 8.730112269626574 H 0.0 **** 0.06
25856 C 53.20993334833622 12.067653321058401 20.90602259274351 C 0.0 **** -0.24
25857 H 53.14259793401391 12.863940605250122 21.64745018305844 H 0.0 **** 0.06
25858 H 52.85700447026875 12.436711126855158 19.94299200734568 H 0.0 **** 0.06
25859 H 52.59227680274404 11.225711445980437 21.220926815008823 H 0.0 **** 0.06
25860 H 54.24632442364344 11.744039409617727 20.814622833788654 H 0.0 **** 0.06
25861 C 107.37125843115088 67.77796638078877 3.5498856754608994 C 0.0 **** -0.24
25862 H 107.20571154862925 66.71476032119398 3.7282518870846673 H 0.0 **** 0.06
25863 H 108.18723725076008 68.12963423539242 4.18150950146142 H 0.0 **** 0.06
25864 H 106.46209527342747 68.3311254625047 3.7875046330289592 H 0.0 **** 0.06
25865 H 107.62794014416501 67.93356266039734 2.502512468769112 H 0.0 **** 0.06
25866 C 36.76015150811267 121.12749469609211 95.66722536702652 C 0.0 **** -0.24
25867 H 37.47719686394595 121.10142315994894 96.48695493431386 H 0.0 **** 0.06
25868 H 37.29077055557724 121.27917035538844 94.72637451534918 H 0.0 **** 0.06
25869 H 36.05858954760174 121.94625485450827 95.82483870532609 H 0.0 **** 0.06
25870 H 36.21644170437372 120.18365349064216 95.63069067451873 H 0.0 **** 0.06
25871 C 65.08951818954722 39.281471202194126 40.07877052444121 C 0.0 **** -0.24
25872 H 64.41986266715492 38.50984888678869 39.69595999258141 H 0.0 **** 0.06
25873 H 65.55912677877677 38.92978379559892 40.99752952980006 H 0.0 **** 0.06
25874 H 64.51901654479991 40.18690696616028 40.284919271751164 H 0.0 **** 0.06
25875 H 65.85785219588507 39.49663529683721 39.33580575856337 H 0.0 **** 0.06
25876 C 130.81732235933873 73.21781295089588 142.42109517129978 C 0.0 **** -0.24
25877 H 130.61902021073524 74.08968451428548 141.79720847223814 H 0.0 **** 0.06
25878 H 130.90603675389815 72.33285199335258 141.79055156802423 H 0.0 **** 0.06
25879 H 129.99788089393132 73.0820874679078 143.1267867727973 H 0.0 **** 0.06
25880 H 131.7479088445288 73.36936127559422 142.96951225897737 H 0.0 **** 0.06
25881 C 177.91435165348742 95.67401056280698 104.50672921388094 C 0.0 **** -0.24
25882 H 178.61265228314574 95.34657434161431 103.73692138163442 H 0.0 **** 0.06
25883 H 177.51775945437174 96.6553301859264 104.2437656788424 H 0.0 **** 0.06
25884 H 178.43177018010897 95.73622469192429 105.46384510175825 H 0.0 **** 0.06
25885 H 177.0953386713892 94.9589010669028 104.58248871714007 H 0.0 **** 0.06
25886 C 127.28784094709272 25.473358342621637 61.66696091887724 C 0.0 **** -0.24
25887 H 126.80211793415333 26.27114309588481 61.10579874505993 H 0.0 **** 0.06
25888 H 126.53380265707551 24.780656529553255 62.040116124545875 H 0.0 **** 0.06
25889 H 127.83659781544475 25.90165908443018 62.50641476859346 H 0.0 **** 0.06
25890 H 127.98009447426591 24.941133104840233 61.01520122924671 H 0.0 **** 0.06
25891 C 171.24925584016782 126.1701083723874 57.850651102095014 C 0.0 **** -0.24
25892 H 170.44713182704646 125.46975369641319 58.08197499092233 H 0.0 **** 0.06
25893 H 171.911208301034 126.26076891300801 58.711650497981125 H 0.0 **** 0.06
25894 H 170.82297217849697 127.14479014466298 57.61515795356611 H 0.0 **** 0.06
25895 H 171.815345496133 125.80379503308956 56.99415101138948 H 0.0 **** 0.06
25896 C 182.05303311015228 52.2350737489828 166.51074130806785 C 0.0 **** -0.24
25897 H 181.08550295003798 51.733736691561546 166.47958179405614 H 0.0 **** 0.06
25898 H 182.84800696651942 51.48933788998241 166.5085142649006 H 0.0 **** 0.06
25899 H 182.12159662262343 52.836221748825025 167.41793616833436 H 0.0 **** 0.06
25900 H 182.15630963008599 52.88024528120779 165.63891277540984 H 0.0 **** 0.06
25901 C 60.28152544021049 116.16399924258984 98.16220026706198 C 0.0 **** -0.24
25902 H 60.670061705482 116.74305088885014 97.32441680712076 H 0.0 **** 0.06
25903 H 59.544066941448136 115.44857817209571 97.79690854440857 H 0.0 **** 0.06
25904 H 59.812627142908354 116.83508107301371 98.88112091721295 H 0.0 **** 0.06
25905 H 61.099635597324664 115.62918777797641 98.64320733208355 H 0.0 **** 0.06
25906 C 54.28378808499809 97.61269453396852 152.8773940489594 C 0.0 **** -0.24
25907 H 55.32091454976799 97.36481615039264 152.65268233784678 H 0.0 **** 0.06
25908 H 54.10986561985527 97.51188340101407 153.949181098914 H 0.0 **** 0.06
25909 H 53.62297402556149 96.93409815263709 152.33694782434705 H 0.0 **** 0.06
25910 H 54.08013501325796 98.6381629244359 152.57108319427152 H 0.0 **** 0.06
25911 C 27.549659245564385 48.34028636401308 37.299212237777354 C 0.0 **** -0.24
25912 H 27.835411325487428 49.38339028300601 37.4324800540667 H 0.0 **** 0.06
25913 H 28.23099632405092 47.8648299308922 36.592336453331384 H 0.0 **** 0.06
25914 H 26.53168470183624 48.28778332604321 36.913527632663346 H 0.0 **** 0.06
25915 H 27.603162174660326 47.824330197059965 38.25780497215568 H 0.0 **** 0.06
25916 C 30.088731422289698 138.92746681116597 175.37981972591825 C 0.0 **** -0.24
25917 H 29.54701006591104 139.50160255097177 176.13069951535812 H 0.0 **** 0.06
25918 H 30.10061696132736 139.47943113598296 174.43886673393447 H 0.0 **** 0.06
25919 H 29.596444069416364 137.9667637561834 175.23178883883014 H 0.0 **** 0.06
25920 H 31.112241031337774 138.76345511282227 175.71684732888232 H 0.0 **** 0.06
25921 C 123.9102279633487 63.84408836879251 50.32916127329793 C 0.0 **** -0.24
25922 H 124.38099703329588 62.945312736678844 49.92935102083797 H 0.0 **** 0.06
25923 H 122.85182330014352 63.65194816094345 50.50575141486951 H 0.0 **** 0.06
25924 H 124.01874689304636 64.65932101552426 49.61382167803005 H 0.0 **** 0.06
25925 H 124.39191870820157 64.11789331298557 51.268641065274025 H 0.0 **** 0.06
25926 C 164.88461396620116 88.21624568356923 172.22353176192053 C 0.0 **** -0.24
25927 H 164.31588360300887 87.33530080777363 172.51822689259467 H 0.0 **** 0.06
25928 H 165.95009696616748 87.98737874412173 172.25308297255611 H 0.0 **** 0.06
25929 H 164.6698727112323 89.03461345295635 172.91117539439227 H 0.0 **** 0.06
25930 H 164.60396024478814 88.50796865197434 171.2119228751378 H 0.0 **** 0.06
25931 C 129.71725573365723 139.73679647047942 126.39884680475747 C 0.0 **** -0.24
25932 H 130.16154852654154 140.71932312458495 126.24302438974028 H 0.0 **** 0.06
25933 H 128.80645261396307 139.84000905820506 126.9893306923416 H 0.0 **** 0.06
25934 H 130.4241784967008 139.09769196604867 126.9275593860031 H 0.0 **** 0.06
25935 H 129.47561095703583 139.29071741861395 125.43369155069486 H 0.0 **** 0.06
25936 C 75.66604693013562 29.30650862114574 11.10140758809726 C 0.0 **** -0.24
25937 H 74.9750332744141 28.8800258148854 10.37490577508504 H 0.0 **** 0.06
25938 H 76.08019592233785 30.23503091149493 10.70876356944072 H 0.0 **** 0.06
25939 H 76.47429879043887 28.599967153316868 11.292361688268187 H 0.0 **** 0.06
25940 H 75.13529320153685 29.51063428982374 12.031710534554833 H 0.0 **** 0.06
25941 C 171.02088451577856 98.92572549504267 86.19956479997144 C 0.0 **** -0.24
25942 H 170.4937332914095 99.10045607256735 87.13778342548828 H 0.0 **** 0.06
25943 H 170.45350498399563 99.36331608471498 85.37829669476098 H 0.0 **** 0.06
25944 H 171.1287171376306 97.85383507904449 86.03765620667052 H 0.0 **** 0.06
25945 H 172.00727780118518 99.38736946245099 86.24642097927851 H 0.0 **** 0.06
25946 C 35.82410974607504 181.35858821393555 167.582794600395 C 0.0 **** -0.24
25947 H 35.87705526584918 181.11706204494845 166.5212084075284 H 0.0 **** 0.06
25948 H 34.98203234157509 180.83373454357624 168.03225827548886 H 0.0 **** 0.06
25949 H 35.68980449073365 182.433264608383 167.704153979004 H 0.0 **** 0.06
25950 H 36.74883596034445 181.05032684997377 168.0717309465055 H 0.0 **** 0.06
25951 C 91.86129541711085 59.542816096220974 76.29479143833757 C 0.0 **** -0.24
25952 H 92.73021742958946 59.095588999812534 75.81333241359343 H 0.0 **** 0.06
25953 H 92.05626470510197 60.597333945369 76.490652237678 H 0.0 **** 0.06
25954 H 91.66167617134778 59.02838312635397 77.23483943783948 H 0.0 **** 0.06
25955 H 90.99526005794127 59.449253551740156 75.6387943385667 H 0.0 **** 0.06
25956 C 3.7106128009035615 160.3333464902217 145.2059268879442 C 0.0 **** -0.24
25957 H 3.453197122534334 161.3746377282695 145.0149790878522 H 0.0 **** 0.06
25958 H 2.9445257651516386 159.8783784438935 145.8342628715229 H 0.0 **** 0.06
25959 H 4.674149662579794 160.28416772110643 145.71283962222913 H 0.0 **** 0.06
25960 H 3.77148685069227 159.79491970515136 144.25927417898058 H 0.0 **** 0.06
25961 C 86.42444010485356 181.73751825489398 111.9859522622508 C 0.0 **** -0.24
25962 H 86.39933869765959 182.68095610390927 112.53129738942351 H 0.0 **** 0.06
25963 H 85.40543325067954 181.40242502729842 111.79157136890586 H 0.0 **** 0.06
25964 H 86.94677871772579 180.9882347823006 112.58064546887664 H 0.0 **** 0.06
25965 H 86.94714411766775 181.87942414161574 111.03985680924063 H 0.0 **** 0.06
25966 C 157.50289843881822 11.8535641405512 146.81077490636596 C 0.0 **** -0.24
25967 H 158.28961013289793 12.566110618874255 147.05924340855464 H 0.0 **** 0.06
25968 H 156.8542297257457 11.712964975391216 147.67562064314743 H 0.0 **** 0.06
25969 H 157.95149798339168 10.899599992222406 146.5345246516896 H 0.0 **** 0.06
25970 H 156.91859848373463 12.235829863001598 145.97438216485756 H 0.0 **** 0.06
25971 C 44.35646982429364 73.06476992209798 128.4601060997781 C 0.0 **** -0.24
25972 H 44.81970661823823 73.77491045335432 129.14514877256414 H 0.0 **** 0.06
25973 H 44.93974385556078 72.1436759869984 128.4443660431411 H 0.0 **** 0.06
25974 H 44.324425206873656 73.49333596732231 127.4585499888247 H 0.0 **** 0.06
25975 H 43.34200621367796 72.84760524874196 128.79476780267015 H 0.0 **** 0.06
25976 C 170.62376891142756 92.36976153060999 24.489902522819307 C 0.0 **** -0.24
25977 H 170.0033633767919 93.2185478153828 24.77553716635694 H 0.0 **** 0.06
25978 H 170.5022741725548 91.56860742140236 25.219025618115325 H 0.0 **** 0.06
25979 H 171.66859916828886 92.6779803743986 24.4575106655156 H 0.0 **** 0.06
25980 H 170.3194748670609 92.01341494156668 23.505563345436457 H 0.0 **** 0.06
25981 C 90.05844059112319 84.17323710535538 96.21180803555518 C 0.0 **** -0.24
25982 H 90.95544006143423 84.73553246752522 95.95086501825318 H 0.0 **** 0.06
25983 H 89.90660922882681 84.21003515604156 97.28990750665787 H 0.0 **** 0.06
25984 H 90.17539699894029 83.13698144260991 95.89557750477371 H 0.0 **** 0.06
25985 H 89.19658768084183 84.6115259961631 95.70777451176804 H 0.0 **** 0.06
25986 C 172.3128995505033 66.81121466522539 60.36857810352842 C 0.0 **** -0.24
25987 H 172.5221971216409 67.81321411482483 60.74109381491935 H 0.0 **** 0.06
25988 H 173.1825945844216 66.17448653848277 60.5311548755876 H 0.0 **** 0.06
25989 H 172.09220835151828 66.85982333704072 59.30137615378659 H 0.0 **** 0.06
25990 H 171.4548798034087 66.39899182585827 60.89841277263446 H 0.0 **** 0.06
25991 C 98.80337478209374 114.40830885806726 34.829381710757175 C 0.0 **** -0.24
25992 H 99.62561344131755 113.7064037391746 34.968996029385025 H 0.0 **** 0.06
25993 H 97.89381490986865 113.99262333510735 35.26325352812056 H 0.0 **** 0.06
25994 H 98.65218035107473 114.58135736072346 33.76357974100361 H 0.0 **** 0.06
25995 H 99.04353549380185 115.35043994658996 35.32048064924827 H 0.0 **** 0.06
25996 C 59.47335745404254 166.17949972434968 179.4873460067896 C 0.0 **** -0.24
25997 H 59.55206952302717 165.84845613812314 180.52252420380458 H 0.0 **** 0.06
25998 H 59.028448707596965 165.38690798044146 178.88452851082064 H 0.0 **** 0.06
25999 H 60.46719001685932 166.41205746405953 179.10430409260087 H 0.0 **** 0.06
26000 H 58.846412120197925 167.069690791083 179.43716857927143 H 0.0 **** 0.06
26001 C 34.778439080423084 14.184062819938731 149.93453714469535 C 0.0 **** -0.24
26002 H 34.740856433384806 14.09753053250921 148.84848324235443 H 0.0 **** 0.06
26003 H 35.31270809968237 13.32819923055797 150.34879133055088 H 0.0 **** 0.06
26004 H 33.764195214554206 14.20702868824111 150.33269829796203 H 0.0 **** 0.06
26005 H 35.296409953349894 15.103565085454306 150.20726800685551 H 0.0 **** 0.06
26006 C 168.80611324105837 2.2146794376213705 39.84147658630701 C 0.0 **** -0.24
26007 H 168.2034755438684 3.089686721093173 40.08729247478698 H 0.0 **** 0.06
26008 H 168.8767065624799 2.1145870819400514 38.75837711412828 H 0.0 **** 0.06
26009 H 168.33953894995244 1.323022933586202 40.25939458726128 H 0.0 **** 0.06
26010 H 169.805043440189 2.3320939643957743 40.261513071394006 H 0.0 **** 0.06
26011 C 136.65100061474072 21.075465427605252 98.51779068333512 C 0.0 **** -0.24
26012 H 137.0659247480658 20.070598122883126 98.44243144844326 H 0.0 **** 0.06
26013 H 137.45883464274675 21.805550756728948 98.4639114755718 H 0.0 **** 0.06
26014 H 136.12613041419291 21.18133808590651 99.46628083734889 H 0.0 **** 0.06
26015 H 135.95509183867523 21.242689380765896 97.69604043302859 H 0.0 **** 0.06
26016 C 119.87068004670367 64.14303079127333 162.43213098349565 C 0.0 **** -0.24
26017 H 120.77424652144397 63.618691702478884 162.1224771641501 H 0.0 **** 0.06
26018 H 119.02059560957692 63.7711620236073 161.86081984808854 H 0.0 **** 0.06
26019 H 119.99112675822009 65.21191340256705 162.25193123191912 H 0.0 **** 0.06
26020 H 119.69850981300029 63.97110993471051 163.49482520255225 H 0.0 **** 0.06
26021 C 155.90188974332784 159.0726575306785 165.89591719937624 C 0.0 **** -0.24
26022 H 156.20263911266332 160.09523028259926 166.12777532545076 H 0.0 **** 0.06
26023 H 156.22294972842656 158.40954293546582 166.69906592566346 H 0.0 **** 0.06
26024 H 156.36452279087737 158.76125337570227 164.95973267561948 H 0.0 **** 0.06
26025 H 154.81669817428838 159.02724495044114 165.79830394630477 H 0.0 **** 0.06
26026 C 176.10122400859177 66.96658276319995 60.98784096646108 C 0.0 **** -0.24
26027 H 176.38396754741694 67.22803507772151 59.96778549771864 H 0.0 **** 0.06
26028 H 176.99923199067234 66.8699036371896 61.60012704105395 H 0.0 **** 0.06
26029 H 175.56081970306272 66.01959109627705 60.98300866518585 H 0.0 **** 0.06
26030 H 175.46263050784 67.74713289055886 61.40006684534916 H 0.0 **** 0.06
26031 C 7.1222835441226096 121.51761396473863 167.87727678256798 C 0.0 **** -0.24
26032 H 6.244692368275366 122.15278855290423 167.76124097550337 H 0.0 **** 0.06
26033 H 7.350555176772218 121.03544952127403 166.92636359393828 H 0.0 **** 0.06
26034 H 6.922193627073199 120.75702603737595 168.63196439516412 H 0.0 **** 0.06
26035 H 7.971693004369627 122.12519174740028 168.18953816566628 H 0.0 **** 0.06
26036 C 172.64077605454818 136.35008555417676 133.65288362458904 C 0.0 **** -0.24
26037 H 172.02850846867776 137.02979632940975 133.05998815657307 H 0.0 **** 0.06
26038 H 173.01905859514372 136.87425515975661 134.53026318670976 H 0.0 **** 0.06
26039 H 173.4779905023683 135.99794033923035 133.05080716551322 H 0.0 **** 0.06
26040 H 172.03681346310375 135.50004452726898 133.96886587294426 H 0.0 **** 0.06
26041 C 97.19091400968388 87.54120705360555 16.846560043036256 C 0.0 **** -0.24
26042 H 97.39445788980633 88.60105767586185 16.998207334174097 H 0.0 **** 0.06
26043 H 98.03516532239617 86.9548441114527 17.20985826182619 H 0.0 **** 0.06
26044 H 97.0445545018106 87.3474036908994 15.784499552343036 H 0.0 **** 0.06
26045 H 96.29145629121452 87.26199084313203 17.39504201785921 H 0.0 **** 0.06
26046 C 169.26468323698978 78.31574712211929 167.6318018168163 C 0.0 **** -0.24
26047 H 169.14191247493585 78.32418649418081 166.5483132360473 H 0.0 **** 0.06
26048 H 170.1588749258868 77.74769385186956 167.89164044047106 H 0.0 **** 0.06
26049 H 168.3923817633099 77.85109908263085 168.0919493068069 H 0.0 **** 0.06
26050 H 169.36519661896446 79.33850356795502 167.993692202101 H 0.0 **** 0.06
26051 C 43.75139677888805 66.5004777598648 164.2091064039828 C 0.0 **** -0.24
26052 H 43.17072205738157 65.94847700798408 164.94700027052062 H 0.0 **** 0.06
26053 H 43.51162849493166 67.56190442915948 164.27754598445753 H 0.0 **** 0.06
26054 H 43.50934127468639 66.1375275119764 163.2100655533729 H 0.0 **** 0.06
26055 H 44.81417061649614 66.35464506876883 164.4002292422113 H 0.0 **** 0.06
26056 C 30.64914457225875 98.70750088408244 116.16725468855753 C 0.0 **** -0.24
26057 H 29.968092066153375 99.44735933350233 115.74742102306476 H 0.0 **** 0.06
26058 H 30.754293056978383 98.87792585250827 117.23939951386228 H 0.0 **** 0.06
26059 H 31.624292474228213 98.79706277941665 115.68760521074734 H 0.0 **** 0.06
26060 H 30.250341952992557 97.70806026227729 115.99587424141725 H 0.0 **** 0.06
26061 C 113.33057893812799 19.69610998049653 153.66750016790706 C 0.0 **** -0.24
26062 H 112.34091174078407 19.363065297772543 153.35339275983878 H 0.0 **** 0.06
26063 H 113.23895730549407 20.62820839438764 154.22631625614045 H 0.0 **** 0.06
26064 H 113.95533389745327 19.858392071754402 152.78932642627942 H 0.0 **** 0.06
26065 H 113.78495494931411 18.934884101357852 154.30154114479058 H 0.0 **** 0.06
26066 C 59.72458092896625 98.0156551095597 75.76697452822579 C 0.0 **** -0.24
26067 H 60.60187073067857 97.90648888477915 76.40455801416607 H 0.0 **** 0.06
26068 H 59.102351755200885 97.1236318255942 75.84855709193656 H 0.0 **** 0.06
26069 H 60.040724664035594 98.14448167559675 74.73154938299137 H 0.0 **** 0.06
26070 H 59.15172697218344 98.88751380086649 76.0833906113048 H 0.0 **** 0.06
26071 C 25.14756231135732 142.6208500922412 96.06638578974453 C 0.0 **** -0.24
26072 H 25.088438082278287 143.33396857192218 96.88788727662502 H 0.0 **** 0.06
26073 H 26.127203306400475 142.14256884108272 96.07050135139043 H 0.0 **** 0.06
26074 H 25.00273167992657 143.14331078706414 95.12104708772476 H 0.0 **** 0.06
26075 H 24.372441290059214 141.86393392945638 96.18537605372426 H 0.0 **** 0.06
26076 C 75.49391070240267 123.77318795541787 59.321409175094914 C 0.0 **** -0.24
26077 H 74.41325353723215 123.77004434459589 59.178414151994616 H 0.0 **** 0.06
26078 H 75.93653734768911 122.94975469338247 58.76097480986844 H 0.0 **** 0.06
26079 H 75.72034381790908 123.65648337078629 60.38048160340513 H 0.0 **** 0.06
26080 H 75.90458217003514 124.7178051319574 58.96423035539519 H 0.0 **** 0.06
26081 C 70.87556898354303 88.67679564488084 117.17015270819137 C 0.0 **** -0.24
26082 H 71.95780885768288 88.70985311994325 117.0454153189353 H 0.0 **** 0.06
26083 H 70.58777892311099 89.31142503268116 118.01002225465253 H 0.0 **** 0.06
26084 H 70.56398721472036 87.65157191197399 117.36622265789593 H 0.0 **** 0.06
26085 H 70.39397490965868 89.0368328216952 116.26098179810246 H 0.0 **** 0.06
26086 C 27.558763460511543 31.852865461084036 67.91442563917948 C 0.0 **** -0.24
26087 H 27.503560762735418 30.781903947045976 67.71809563145081 H 0.0 **** 0.06
26088 H 27.29247549477698 32.40247743872311 67.01213536878225 H 0.0 **** 0.06
26089 H 28.573289188901327 32.11471360969267 68.21421130720069 H 0.0 **** 0.06
26090 H 26.86454086016235 32.11104186734286 68.71494379665185 H 0.0 **** 0.06
26091 C 97.57673202590934 14.399239519244702 106.63166260846334 C 0.0 **** -0.24
26092 H 98.46658971579024 14.783321198552727 106.1323932104598 H 0.0 **** 0.06
26093 H 97.73700012612414 14.400492828533345 107.7098499439034 H 0.0 **** 0.06
26094 H 97.3814530333454 13.381823697421225 106.2937698630026 H 0.0 **** 0.06
26095 H 96.72351134179246 15.032945931316448 106.38979278824316 H 0.0 **** 0.06
26096 C 93.95379648824422 115.66384192606908 88.27398328451596 C 0.0 **** -0.24
26097 H 94.62843448499643 116.49115951672395 88.49390949305462 H 0.0 **** 0.06
26098 H 93.05489492746239 115.75534380617565 88.88336144641113 H 0.0 **** 0.06
26099 H 94.45167104274782 114.720269441594 88.49873708998439 H 0.0 **** 0.06
26100 H 93.68169056393691 115.68844981891111 87.21827773514622 H 0.0 **** 0.06
26101 C 120.52207531513625 59.314411951075456 148.2799876113677 C 0.0 **** -0.24
26102 H 119.71349329838478 58.5949212720851 148.1469813165544 H 0.0 **** 0.06
26103 H 120.31180912871292 60.209309266057915 147.69454138646734 H 0.0 **** 0.06
26104 H 121.46040344897528 58.87164146923553 147.9445580367531 H 0.0 **** 0.06
26105 H 120.60162491502973 59.57920430345759 149.33453739435004 H 0.0 **** 0.06
26106 C 84.90274360706465 176.32926433865995 15.146786502940124 C 0.0 **** -0.24
26107 H 85.51889088120065 175.61859223082007 15.697282684531707 H 0.0 **** 0.06
26108 H 84.16627545057132 175.78786059576436 14.552459976250645 H 0.0 **** 0.06
26109 H 85.53556273904776 176.9241415641384 14.48758136376982 H 0.0 **** 0.06
26110 H 84.39190492351561 176.98691076134116 15.84960893311051 H 0.0 **** 0.06
26111 C 4.610421288348562 142.9026390975194 162.5753451303704 C 0.0 **** -0.24
26112 H 4.1767091318640155 143.62248086775938 161.8803321920069 H 0.0 **** 0.06
26113 H 5.062974884975375 143.43428945747942 163.41291215559312 H 0.0 **** 0.06
26114 H 5.373001251766738 142.31720345482233 162.06213244569523 H 0.0 **** 0.06
26115 H 3.8292456117929987 142.2381531180136 162.94531583501492 H 0.0 **** 0.06
26116 C 26.644957617682067 144.27285562836101 85.41688910013339 C 0.0 **** -0.24
26117 H 26.517822676457143 144.02331791563213 86.47022997389722 H 0.0 **** 0.06
26118 H 26.71966162237139 145.3552441148712 85.30673526101195 H 0.0 **** 0.06
26119 H 25.7877649180366 143.90813983159737 84.8519055611398 H 0.0 **** 0.06
26120 H 27.55455942876266 143.80482793592418 85.03967960569136 H 0.0 **** 0.06
26121 C 185.47691854998922 127.18504800035232 83.880648809337 C 0.0 **** -0.24
26122 H 184.57428018097178 127.49637065762936 83.35466635066393 H 0.0 **** 0.06
26123 H 186.26013318847248 126.96145851378672 83.15665645997076 H 0.0 **** 0.06
26124 H 185.26377097356087 126.29462595356306 84.47207424979341 H 0.0 **** 0.06
26125 H 185.80853491619476 127.98747341261976 84.53933492371539 H 0.0 **** 0.06
26126 C 168.85003347122606 149.6668632898719 70.09296186349798 C 0.0 **** -0.24
26127 H 168.33558103885437 149.84550772739382 69.14900306598207 H 0.0 **** 0.06
26128 H 169.8484706961579 150.10294681733842 70.05070495649193 H 0.0 **** 0.06
26129 H 168.92870614763507 148.5937663653205 70.2661321673757 H 0.0 **** 0.06
26130 H 168.28700035736054 150.12657574869087 70.9062395357318 H 0.0 **** 0.06
26131 C 75.22131654220459 44.45631685167827 19.692360555614357 C 0.0 **** -0.24
26132 H 76.05424324495063 44.69196599397826 19.030516212993348 H 0.0 **** 0.06
26133 H 75.00673401408861 43.38839229410061 19.640486975710644 H 0.0 **** 0.06
26134 H 74.34061392050548 45.01891610383338 19.380980784597 H 0.0 **** 0.06
26135 H 75.4828289665195 44.725991990551265 20.71538837765661 H 0.0 **** 0.06
26136 C 119.17221487998252 171.98135459681168 94.30651982161744 C 0.0 **** -0.24
26137 H 119.85113261524434 171.53011434912366 93.5833502035582 H 0.0 **** 0.06
26138 H 119.07435332791745 173.0471150970347 94.0960986356791 H 0.0 **** 0.06
26139 H 119.56963029008021 171.844758290114 95.31205141927394 H 0.0 **** 0.06
26140 H 118.19494564868133 171.50452749109485 94.23398628726294 H 0.0 **** 0.06
26141 C 56.338553033939974 148.4175833789929 25.02093435327211 C 0.0 **** -0.24
26142 H 56.6557338221466 149.3903360987313 24.64414545370849 H 0.0 **** 0.06
26143 H 55.45953403223956 148.54342754648334 25.65292501694077 H 0.0 **** 0.06
26144 H 57.14584909245099 147.97457034563314 25.604848653663225 H 0.0 **** 0.06
26145 H 56.09511079498472 147.76543580323755 24.183277661859933 H 0.0 **** 0.06
26146 C 93.85805128244967 145.11110484369766 100.20228107694795 C 0.0 **** -0.24
26147 H 94.60895347055303 145.66972093225786 100.75975421319599 H 0.0 **** 0.06
26148 H 93.04215916729741 145.7783424941182 99.92177194370949 H 0.0 **** 0.06
26149 H 93.46985310294117 144.3043499125526 100.8252032665773 H 0.0 **** 0.06
26150 H 94.31031921763888 144.6909636228957 99.30414610772046 H 0.0 **** 0.06
26151 C 119.49658934917316 10.309521381638035 143.79757612798633 C 0.0 **** -0.24
26152 H 120.5547222360989 10.051716831419185 143.82870401564782 H 0.0 **** 0.06
26153 H 119.12166734064563 10.180291945662958 142.7813686446668 H 0.0 **** 0.06
26154 H 119.36648834141845 11.34837764089238 144.10341890265587 H 0.0 **** 0.06
26155 H 118.94362113475604 9.659453442477115 144.47438344933144 H 0.0 **** 0.06
26156 C 20.780360516793166 143.0988181818977 121.57135428063827 C 0.0 **** -0.24
26157 H 21.027826330638277 143.7038049924367 120.69853642052419 H 0.0 **** 0.06
26158 H 21.29043702758375 142.13783273685647 121.5027153870816 H 0.0 **** 0.06
26159 H 19.702779978009858 142.93671803840277 121.60655518687997 H 0.0 **** 0.06
26160 H 21.09947782998725 143.61729666340796 122.4753722909494 H 0.0 **** 0.06
26161 C 157.1040109465166 148.58575558386508 166.14286443220138 C 0.0 **** -0.24
26162 H 156.59404741545285 148.97275868181447 167.024740357986 H 0.0 **** 0.06
26163 H 156.74555527143474 147.57842782792073 165.92995906621715 H 0.0 **** 0.06
26164 H 158.17802168605544 148.55799554554414 166.32785276817864 H 0.0 **** 0.06
26165 H 156.89864753302487 149.23332038392408 165.2916764328334 H 0.0 **** 0.06
26166 C 170.58334124846328 109.42130697782295 95.94822864024526 C 0.0 **** -0.24
26167 H 170.73686599191947 110.18173070929168 96.7150515061849 H 0.0 **** 0.06
26168 H 169.87137427502236 109.79008503154677 95.20936724827173 H 0.0 **** 0.06
26169 H 170.19209267316756 108.51466031540969 96.40938884716205 H 0.0 **** 0.06
26170 H 171.53260331033863 109.20067541769697 95.46016346747227 H 0.0 **** 0.06
26171 C 67.10523235032429 72.17709206173072 161.96976136928924 C 0.0 **** -0.24
26172 H 66.96649867616026 72.57854353797961 162.97434291400103 H 0.0 **** 0.06
26173 H 68.03264603561979 72.56666974322172 161.54846873870554 H 0.0 **** 0.06
26174 H 66.26689344746688 72.47699493956782 161.34068146914618 H 0.0 **** 0.06
26175 H 67.154580161838 71.08984507342592 162.01737556013546 H 0.0 **** 0.06
26176 C 126.32321131889296 88.82916259908102 159.66024268274748 C 0.0 **** -0.24
26177 H 125.33009471099092 88.91389678359586 160.09929260920626 H 0.0 **** 0.06
26178 H 126.25722491781477 88.29517179289284 158.71203912386892 H 0.0 **** 0.06
26179 H 126.97586643974421 88.28244527686947 160.34138278841496 H 0.0 **** 0.06
26180 H 126.73043139679146 89.82598530551228 159.4890828742021 H 0.0 **** 0.06
26181 C 36.417466489487396 0.5473025518025381 112.0704753229651 C 0.0 **** -0.24
26182 H 36.55477334690161 1.6219744201983843 112.19101813852505 H 0.0 **** 0.06
26183 H 35.42774233937104 0.26408696555942157 112.43037173997517 H 0.0 **** 0.06
26184 H 37.178106718421276 0.017322281927391714 112.64460313360318 H 0.0 **** 0.06
26185 H 36.509879073132026 0.2846396762341499 111.01634131491248 H 0.0 **** 0.06
26186 C 95.0176095624535 125.4972254004961 7.977023309392848 C 0.0 **** -0.24
26187 H 94.70957592807206 125.27531434293853 8.999165738643853 H 0.0 **** 0.06
26188 H 94.43685956235693 124.88830217545895 7.282812712245601 H 0.0 **** 0.06
26189 H 96.07742983056075 125.27173419183991 7.860040111204341 H 0.0 **** 0.06
26190 H 94.84522143786877 126.55269501457828 7.766738769307324 H 0.0 **** 0.06
26191 C 99.69195457791238 148.71968652258215 184.86204739821937 C 0.0 **** -0.24
26192 H 99.21758195994335 149.2067807327304 185.7147473716861 H 0.0 **** 0.06
26193 H 100.6409713480561 149.2111674915948 184.6456750049187 H 0.0 **** 0.06
26194 H 99.03885618598059 148.79210867362542 183.99286337570817 H 0.0 **** 0.06
26195 H 99.87023686153549 147.67035251671243 185.09669379350692 H 0.0 **** 0.06
26196 C 141.72577607055513 111.09181724649245 163.8518875956019 C 0.0 **** -0.24
26197 H 141.23523001974036 110.95475845350315 162.88838937878964 H 0.0 **** 0.06
26198 H 142.72815372499986 110.66456297602541 163.81334921834656 H 0.0 **** 0.06
26199 H 141.1462298547869 110.59275381652235 164.62809132097115 H 0.0 **** 0.06
26200 H 141.79259259164837 112.15669727198342 164.07633015952078 H 0.0 **** 0.06
26201 C 171.28948463143985 26.715558925909633 28.994769235862748 C 0.0 **** -0.24
26202 H 171.81473590574208 27.57539640093222 29.411928685622684 H 0.0 **** 0.06
26203 H 171.8079892454677 25.800210903203123 29.279587281405384 H 0.0 **** 0.06
26204 H 171.26607770086645 26.797469678925296 27.908330514575198 H 0.0 **** 0.06
26205 H 170.27032246324723 26.692040984724784 29.37976368887996 H 0.0 **** 0.06
26206 C 76.44861236101539 53.760661925610975 137.54003397860112 C 0.0 **** -0.24
26207 H 75.89548563926412 53.37306649354127 136.68469546896335 H 0.0 **** 0.06
26208 H 75.95829635228273 53.44657449460533 138.46165682395093 H 0.0 **** 0.06
26209 H 76.47326123101344 54.84890001089684 137.49281490001982 H 0.0 **** 0.06
26210 H 77.46770832405879 53.37237914509092 137.51958149405323 H 0.0 **** 0.06
26211 C 164.5286421276636 183.07578203249466 114.10778116545487 C 0.0 **** -0.24
26212 H 163.56658790983778 183.23784292074592 113.62220284918016 H 0.0 **** 0.06
26213 H 164.3911718468001 182.44540291421777 114.98637860170993 H 0.0 **** 0.06
26214 H 164.94798865203973 184.03594825015676 114.41084671558667 H 0.0 **** 0.06
26215 H 165.2087304326471 182.58614697939805 113.41065005928442 H 0.0 **** 0.06
26216 C 93.47793515807513 111.91143190843387 75.54369993352361 C 0.0 **** -0.24
26217 H 93.08540260943067 112.17456699687192 74.56091790610895 H 0.0 **** 0.06
26218 H 93.0639846312871 112.5859562357884 76.29227472725336 H 0.0 **** 0.06
26219 H 94.56464234444195 111.99915139124651 75.53550473403288 H 0.0 **** 0.06
26220 H 93.19750659350785 110.88591700784234 75.78279480354229 H 0.0 **** 0.06
26221 C 182.9751084355768 3.6090298642887433 12.648869161404107 C 0.0 **** -0.24
26222 H 182.1096910765059 2.9656855378213436 12.80710705166689 H 0.0 **** 0.06
26223 H 183.6258289943803 3.5637613612123005 13.522047193571545 H 0.0 **** 0.06
26224 H 182.64167272908028 4.635697428183107 12.496528377990728 H 0.0 **** 0.06
26225 H 183.52295105797674 3.2703351219705894 11.769082417460318 H 0.0 **** 0.06
26226 C 107.50385344436616 85.67470767267184 126.63487399929927 C 0.0 **** -0.24
26227 H 108.28250059465803 85.5787076583834 125.87813693980435 H 0.0 **** 0.06
26228 H 106.8244284428548 84.82577032831256 126.56677563344736 H 0.0 **** 0.06
26229 H 106.94934099771048 86.59836294025513 126.46906912392951 H 0.0 **** 0.06
26230 H 107.96005316114618 85.69808372589154 127.6246263653113 H 0.0 **** 0.06
26231 C 59.65620417810908 34.533053631740444 52.50409762229398 C 0.0 **** -0.24
26232 H 58.66180587009079 34.67307959083371 52.926489700909514 H 0.0 **** 0.06
26233 H 60.288116106883066 35.379241317274534 52.773506371276596 H 0.0 **** 0.06
26234 H 59.58285110420131 34.465277298376634 51.41825459435452 H 0.0 **** 0.06
26235 H 60.091082304362345 33.6141246702818 52.89618169744665 H 0.0 **** 0.06
26236 C 128.25526061325212 180.02340583724927 85.93633769402489 C 0.0 **** -0.24
26237 H 128.5637540692428 181.06836475207325 85.97874096060353 H 0.0 **** 0.06
26238 H 129.06197208344076 179.39134032287288 86.30705206273178 H 0.0 **** 0.06
26239 H 128.02659828890836 179.75418507240704 84.90598530664943 H 0.0 **** 0.06
26240 H 127.36879096429577 179.88168430642133 86.55505164059669 H 0.0 **** 0.06
26241 C 75.67243340581501 26.463504596358064 13.934587771725553 C 0.0 **** -0.24
26242 H 76.54215466554842 27.055745355839463 13.646931342818768 H 0.0 **** 0.06
26243 H 75.15201306931397 26.95851071446515 14.754868208584881 H 0.0 **** 0.06
26244 H 75.99670022877376 25.473899810348257 14.25425122350429 H 0.0 **** 0.06
26245 H 75.00047016155872 26.36810668929104 13.081676287043138 H 0.0 **** 0.06
26246 C 179.30978131820194 155.6089635682029 107.44511393336444 C 0.0 **** -0.24
26247 H 178.22744167629799 155.6514831007365 107.32395144611917 H 0.0 **** 0.06
26248 H 179.79127015156234 155.9487892858389 106.52694651746276 H 0.0 **** 0.06
26249 H 179.6115070206577 154.5832848656058 107.65604318454803 H 0.0 **** 0.06
26250 H 179.60856869707058 156.25359667062344 108.27146592759391 H 0.0 **** 0.06
26251 C 59.346439330686195 87.41537163070335 176.63671285317025 C 0.0 **** -0.24
26252 H 59.52659574439343 88.4097996858673 176.22923910550128 H 0.0 **** 0.06
26253 H 58.86550081694338 86.79415363509374 175.88080166537208 H 0.0 **** 0.06
26254 H 58.6987348935217 87.49277203068372 177.51006187105952 H 0.0 **** 0.06
26255 H 60.29605819006747 86.96599040389746 176.9272036416322 H 0.0 **** 0.06
26256 C 19.86444077764216 16.186725076847665 120.23205325153293 C 0.0 **** -0.24
26257 H 18.960613107805216 16.58482860191083 120.69270548171289 H 0.0 **** 0.06
26258 H 20.286807583372664 16.93086784076769 119.55690868324257 H 0.0 **** 0.06
26259 H 19.61850858761065 15.283989105353726 119.67158333934157 H 0.0 **** 0.06
26260 H 20.59036017369486 15.945027552183603 121.00803758516923 H 0.0 **** 0.06
26261 C 20.811011873851243 13.799005633496911 185.4769385611312 C 0.0 **** -0.24
26262 H 21.597954510904287 13.162783852902443 185.88180581338986 H 0.0 **** 0.06
26263 H 19.837607220176267 13.37475738304547 185.7242909006314 H 0.0 **** 0.06
26264 H 20.915734653701463 13.86149066473088 184.39389649487583 H 0.0 **** 0.06
26265 H 20.893270175943627 14.79636639039122 185.90834491634092 H 0.0 **** 0.06
26266 C 103.30031456966945 39.036063687644756 32.52272889277582 C 0.0 **** -0.24
26267 H 102.68812630881861 39.86042300981185 32.88778723373319 H 0.0 **** 0.06
26268 H 102.65860932412666 38.19268283060701 32.26559371807532 H 0.0 **** 0.06
26269 H 104.00352246400654 38.73470952306353 33.2987718520353 H 0.0 **** 0.06
26270 H 103.85039576839087 39.356890851672034 31.637203620568897 H 0.0 **** 0.06
26271 C 15.085666047434245 174.3734100130947 162.826901680175 C 0.0 **** -0.24
26272 H 16.109240089117705 174.7311380873818 162.71470019514575 H 0.0 **** 0.06
26273 H 15.08410516102272 173.28412301543938 162.8703731870118 H 0.0 **** 0.06
26274 H 14.489912593917104 174.70427928241958 161.97671011898464 H 0.0 **** 0.06
26275 H 14.659515905988442 174.7742561946477 163.74680481030367 H 0.0 **** 0.06
26276 C 46.4456832793162 160.07041736617745 0.8917146565481673 C 0.0 **** -0.24
26277 H 45.36250579833762 160.18811826072755 0.8645963708060904 H 0.0 **** 0.06
26278 H 46.87236956632546 160.79713550003825 1.5829150078017307 H 0.0 **** 0.06
26279 H 46.853680645720715 160.23362640543897 -0.10558034078530909 H 0.0 **** 0.06
26280 H 46.69343729856797 159.06268945359056 1.2261287395190195 H 0.0 **** 0.06
26281 C 111.60549538495796 3.561662590877127 124.75010657648505 C 0.0 **** -0.24
26282 H 111.41174940888656 2.621549639886041 125.26579396155802 H 0.0 **** 0.06
26283 H 112.51025704018356 3.4667053543769555 124.14926895582249 H 0.0 **** 0.06
26284 H 111.73720379236745 4.357433819242388 125.4821450800087 H 0.0 **** 0.06
26285 H 110.76277175379009 3.800181867308247 124.10032135892692 H 0.0 **** 0.06
26286 C 11.815252229060746 106.08935795108789 148.0477680808175 C 0.0 **** -0.24
26287 H 10.778241661658285 105.75524562724422 148.09377272173663 H 0.0 **** 0.06
26288 H 12.466924031842495 105.22835462967146 147.89843452743213 H 0.0 **** 0.06
26289 H 12.07780865905795 106.58636555626606 148.9817257500033 H 0.0 **** 0.06
26290 H 11.935672581709127 106.78580620853268 147.2187722462059 H 0.0 **** 0.06
26291 C 116.36339988339942 122.502488048794 22.822256600451425 C 0.0 **** -0.24
26292 H 116.44048654759597 123.53177395360989 23.173941913066898 H 0.0 **** 0.06
26293 H 116.36258548068095 121.82648954041856 23.677037101421618 H 0.0 **** 0.06
26294 H 117.21271946674939 122.27350729645867 22.178771233581685 H 0.0 **** 0.06
26295 H 115.43738088127175 122.3799518687387 22.26010264786764 H 0.0 **** 0.06
26296 C 72.31843814619361 20.28944495730491 51.84799666550526 C 0.0 **** -0.24
26297 H 73.1864779452697 20.661806438629355 52.39312071325264 H 0.0 **** 0.06
26298 H 71.83327802535077 19.505738225894902 52.429775642487016 H 0.0 **** 0.06
26299 H 72.63945335619516 19.885234101394587 50.88900910953066 H 0.0 **** 0.06
26300 H 71.61715108140798 21.107240894772247 51.68155861268673 H 0.0 **** 0.06
26301 C 120.43816390675823 167.47689807533416 177.74007118713197 C 0.0 **** -0.24
26302 H 119.90027105755098 166.85309634223697 177.02615729563024 H 0.0 **** 0.06
26303 H 121.47376652027009 167.14303302878554 177.8054602043982 H 0.0 **** 0.06
26304 H 119.96731946781375 167.3957427613444 178.71982304083292 H 0.0 **** 0.06
26305 H 120.41038319209952 168.51464699054884 177.40894618775548 H 0.0 **** 0.06
26306 C 60.0099259611399 159.3765793104177 172.17598623080787 C 0.0 **** -0.24
26307 H 60.302055306043556 159.27580856508243 173.2214464525897 H 0.0 **** 0.06
26308 H 60.42919101768719 158.55091255965726 171.6006927392775 H 0.0 **** 0.06
26309 H 60.38747252819728 160.3215200115903 171.78391984536188 H 0.0 **** 0.06
26310 H 58.9232162428772 159.35947058463674 172.09932712584003 H 0.0 **** 0.06
26311 C 36.76441916137634 117.43346150668197 134.8533220268368 C 0.0 **** -0.24
26312 H 36.45117179595559 116.39540297798283 134.74689874264953 H 0.0 **** 0.06
26313 H 37.71521933654867 117.47325012791583 135.3852940824956 H 0.0 **** 0.06
26314 H 36.00922824233032 117.98457877929314 135.41515726104228 H 0.0 **** 0.06
26315 H 36.880848313666206 117.88134457507795 133.86600830083222 H 0.0 **** 0.06
26316 C 18.372915692406522 0.7457580492962563 156.31593547962063 C 0.0 **** -0.24
26317 H 17.654165939601413 0.40131373754729793 155.5733129386938 H 0.0 **** 0.06
26318 H 18.14770102608378 0.2873519204086392 157.27927163973396 H 0.0 **** 0.06
26319 H 18.312123783238356 1.8300936723362327 156.40512038351267 H 0.0 **** 0.06
26320 H 19.37936125438153 0.462940204775947 156.0054281668945 H 0.0 **** 0.06
26321 C 110.09635072928891 61.2508450798294 149.55214106473605 C 0.0 **** -0.24
26322 H 109.23284082239455 61.52995108940951 150.15577243804557 H 0.0 **** 0.06
26323 H 109.75773012493512 60.837177631163684 148.6019933378563 H 0.0 **** 0.06
26324 H 110.68482570337319 60.504094184159015 150.08487989307736 H 0.0 **** 0.06
26325 H 110.70972926032677 62.132224288744254 149.36730381373138 H 0.0 **** 0.06
26326 C 32.580912001751244 107.78546415343232 57.82618104864069 C 0.0 **** -0.24
26327 H 31.825753131800298 107.75693322233798 58.61171299022516 H 0.0 **** 0.06
26328 H 33.526887252258575 108.13110328706745 58.24331266299211 H 0.0 **** 0.06
26329 H 32.26055139538636 108.46844767708944 57.03896572301039 H 0.0 **** 0.06
26330 H 32.71013472226798 106.78654904043606 57.41001709132581 H 0.0 **** 0.06
26331 C 115.59293193313802 109.81323459384767 159.1362219886466 C 0.0 **** -0.24
26332 H 115.63529262554736 109.97929721509955 158.05892018020833 H 0.0 **** 0.06
26333 H 115.93346050670594 110.7103113928079 159.6542334690338 H 0.0 **** 0.06
26334 H 116.2362190503873 108.97459297357115 159.39988890932892 H 0.0 **** 0.06
26335 H 114.56683662999914 109.5920088836367 159.42933795209586 H 0.0 **** 0.06
26336 C 147.34476668407314 17.332246343288496 152.58007309820894 C 0.0 **** -0.24
26337 H 146.3416302003022 17.672951879391533 152.32365099278985 H 0.0 **** 0.06
26338 H 147.28716191320467 16.63576987172779 153.41792131515467 H 0.0 **** 0.06
26339 H 147.95781837089655 18.18815306929094 152.8608695511122 H 0.0 **** 0.06
26340 H 147.78922851770253 16.83157987917081 151.72121217940432 H 0.0 **** 0.06
26341 C 175.33403870723566 6.312847584239023 78.5445243314975 C 0.0 **** -0.24
26342 H 176.04942410127998 6.086459528302555 77.75302791094282 H 0.0 **** 0.06
26343 H 175.86102886981783 6.405212942751348 79.4941539282007 H 0.0 **** 0.06
26344 H 174.60099408167193 5.5079986636897615 78.61186075556539 H 0.0 **** 0.06
26345 H 174.82545268873704 7.249418594336049 78.31727919443102 H 0.0 **** 0.06
26346 C 53.897431619207595 28.275605288547865 148.8773717309559 C 0.0 **** -0.24
26347 H 54.3994383294027 27.324828592276802 148.70111262033896 H 0.0 **** 0.06
26348 H 54.47882629274005 28.868499510652327 149.58379656772337 H 0.0 **** 0.06
26349 H 52.9043578083066 28.090607557165853 149.2892062320509 H 0.0 **** 0.06
26350 H 53.80503411763419 28.81736876932122 147.93605595169905 H 0.0 **** 0.06
26351 C 84.89198772109204 143.20186542603187 130.79093297067743 C 0.0 **** -0.24
26352 H 84.47878053027779 143.89796769769688 131.5201687232895 H 0.0 **** 0.06
26353 H 84.09707226699577 142.85080702040267 130.13305929309558 H 0.0 **** 0.06
26354 H 85.33717622361966 142.35271206468542 131.30962375920802 H 0.0 **** 0.06
26355 H 85.6557395942988 143.70792123316767 130.1996377968216 H 0.0 **** 0.06
26356 C 67.05232393034971 149.89739353417593 163.60487209193803 C 0.0 **** -0.24
26357 H 67.0997713659803 148.82623222940248 163.79698019876253 H 0.0 **** 0.06
26358 H 68.0586572008857 150.3160381209674 163.6309572474172 H 0.0 **** 0.06
26359 H 66.43994294520448 150.3759125985925 164.37002595267 H 0.0 **** 0.06
26360 H 66.61041671608376 150.07207382746626 162.62382205442594 H 0.0 **** 0.06
26361 C 16.9510290856973 105.49352049538241 107.84477946756031 C 0.0 **** -0.24
26362 H 17.248127907563727 105.28897377723148 106.81592024146998 H 0.0 **** 0.06
26363 H 16.406534688341637 104.63766651575934 108.2426427092757 H 0.0 **** 0.06
26364 H 16.31213920830369 106.3759613268857 107.87000350879798 H 0.0 **** 0.06
26365 H 17.84007819376572 105.67205854890999 108.44953744228256 H 0.0 **** 0.06
26366 C 68.62008730766011 50.55916838436781 46.24255778169851 C 0.0 **** -0.24
26367 H 68.42119982967522 50.062508196539795 47.192462936519746 H 0.0 **** 0.06
26368 H 69.45829242995552 50.069922909722266 45.74607977608696 H 0.0 **** 0.06
26369 H 68.86493314723155 51.60565542301907 46.4241142595518 H 0.0 **** 0.06
26370 H 67.73566741621492 50.49724259005143 45.60793030693469 H 0.0 **** 0.06
26371 C 39.19839113147458 5.658609766106167 143.6278757967446 C 0.0 **** -0.24
26372 H 39.04244678314922 6.093413959098001 144.61467010830975 H 0.0 **** 0.06
26373 H 39.155144354942706 4.571215266372803 143.69884277444194 H 0.0 **** 0.06
26374 H 40.17547317371623 5.959404461776245 143.24900033948126 H 0.0 **** 0.06
26375 H 38.42148444210548 6.01054443303201 142.94909943345377 H 0.0 **** 0.06
26376 C 105.7313812546663 179.55625347176635 91.62823634314077 C 0.0 **** -0.24
26377 H 105.25211376162213 178.9229006672121 92.37464524901623 H 0.0 **** 0.06
26378 H 106.8059372246368 179.5847886685521 91.81237109001995 H 0.0 **** 0.06
26379 H 105.32465268231488 180.56546763792008 91.69290472039461 H 0.0 **** 0.06
26380 H 105.54376360415989 179.15182586491613 90.63335780672804 H 0.0 **** 0.06
26381 C 140.96256288840488 113.93769529752831 167.81041946835185 C 0.0 **** -0.24
26382 H 141.92477683240327 114.21320077892398 168.24180376653848 H 0.0 **** 0.06
26383 H 140.1783877225198 114.55611476037001 168.2462038417823 H 0.0 **** 0.06
26384 H 140.7585866809124 112.88777102999575 168.02128224378842 H 0.0 **** 0.06
26385 H 140.99140679015932 114.09244889150568 166.73235931681677 H 0.0 **** 0.06
26386 C 50.56643337802626 47.47998423142866 168.41870000973034 C 0.0 **** -0.24
26387 H 51.35517411768626 47.58782827004924 167.6748048236025 H 0.0 **** 0.06
26388 H 50.683407655453266 48.245581816856486 169.18641072739962 H 0.0 **** 0.06
26389 H 50.63145156782798 46.493268184313536 168.87602091763966 H 0.0 **** 0.06
26390 H 49.595066533905936 47.59434549174637 167.9369175531911 H 0.0 **** 0.06
26391 C 41.49493264736145 183.37223529678624 181.4548844937346 C 0.0 **** -0.24
26392 H 41.573500340127794 183.33570819064158 180.36729297700793 H 0.0 **** 0.06
26393 H 41.96257535230566 184.2861527340516 181.8211843460444 H 0.0 **** 0.06
26394 H 42.00051690892519 182.50710478302324 181.88366778092254 H 0.0 **** 0.06
26395 H 40.44452194313834 183.35926827930905 181.74357384535972 H 0.0 **** 0.06
26396 C 34.24502284747133 182.1462330034733 176.62484239351008 C 0.0 **** -0.24
26397 H 33.74012658067498 181.76643130806787 177.5123911334458 H 0.0 **** 0.06
26398 H 33.637326528191466 182.92824272641369 176.16872688281677 H 0.0 **** 0.06
26399 H 34.38607574529834 181.33418156236263 175.91165315019896 H 0.0 **** 0.06
26400 H 35.2151822553199 182.55677453054523 176.90469903614292 H 0.0 **** 0.06
26401 C 106.86813151948904 134.80067385726903 6.473547305115638 C 0.0 **** -0.24
26402 H 106.0867635711699 135.113670887313 5.780858805759038 H 0.0 **** 0.06
26403 H 107.26054144128842 133.83232685650785 6.163337863126216 H 0.0 **** 0.06
26404 H 106.4512239196669 134.7190489562298 7.477495908887079 H 0.0 **** 0.06
26405 H 107.67141561076635 135.536541433058 6.472165327025486 H 0.0 **** 0.06
26406 C 167.4549680241614 152.87075982088044 102.78119873660671 C 0.0 **** -0.24
26407 H 166.6329748159023 153.36330023230084 103.30161251098633 H 0.0 **** 0.06
26408 H 167.64854863551687 151.902924806194 103.24349440970764 H 0.0 **** 0.06
26409 H 168.34944352425734 153.4903277557832 102.8469978353641 H 0.0 **** 0.06
26410 H 167.18799367241326 152.72707522245662 101.73488627848701 H 0.0 **** 0.06
26411 C 150.59893109732207 12.53430994095335 178.59630037098236 C 0.0 **** -0.24
26412 H 150.66736028871009 11.458287406184851 178.75428549036914 H 0.0 **** 0.06
26413 H 149.56232986169846 12.852060870020459 178.7126859891428 H 0.0 **** 0.06
26414 H 150.94325967306523 12.776137569370377 177.59088971452127 H 0.0 **** 0.06
26415 H 151.2212764183127 13.049133480548626 179.32770064990117 H 0.0 **** 0.06
26416 C 75.43227740164679 170.45536278525964 157.22624129888752 C 0.0 **** -0.24
26417 H 75.35523338592316 171.52782336645876 157.4048326821444 H 0.0 **** 0.06
26418 H 76.45838164529584 170.20626933178406 156.95302173057624 H 0.0 **** 0.06
26419 H 74.76124313343507 170.17330060795825 156.41482259944172 H 0.0 **** 0.06
26420 H 75.15514063959603 169.91538143011127 158.1307205269701 H 0.0 **** 0.06
26421 C 124.42998584532101 154.90652828586443 153.62327375674874 C 0.0 **** -0.24
26422 H 124.26205115040385 154.0820697342203 154.3158352233843 H 0.0 **** 0.06
26423 H 125.21211668565313 155.5568328669136 154.0149607009261 H 0.0 **** 0.06
26424 H 123.50829468472735 155.47548809858083 153.50587924127862 H 0.0 **** 0.06
26425 H 124.73750088738025 154.50981261648036 152.65488613814506 H 0.0 **** 0.06
26426 C 64.71582598703006 137.98351473510849 25.1822586565237 C 0.0 **** -0.24
26427 H 64.78561935159497 137.7689534531748 26.248547407414648 H 0.0 **** 0.06
26428 H 64.902814267224 139.04388594827145 25.012456893805165 H 0.0 **** 0.06
26429 H 63.71725046242021 137.72914857743297 24.825803662445708 H 0.0 **** 0.06
26430 H 65.45551900043334 137.39273241015871 24.64261262808627 H 0.0 **** 0.06
26431 C 78.42951138421293 102.35472068769535 174.0290097354789 C 0.0 **** -0.24
26432 H 79.17998419760416 102.4659908087872 174.81215333633668 H 0.0 **** 0.06
26433 H 77.80596721533757 101.48710126413975 174.24390170795846 H 0.0 **** 0.06
26434 H 78.9250937402193 102.21772287808734 173.06803258408286 H 0.0 **** 0.06
26435 H 77.80827233048268 103.24923924112947 173.9920510664233 H 0.0 **** 0.06
26436 C 96.6003426700138 81.41790535015333 153.12150149949568 C 0.0 **** -0.24
26437 H 97.51068927808895 82.01288791327535 153.04284283027766 H 0.0 **** 0.06
26438 H 95.96444987382883 81.82942678349195 153.90538211972518 H 0.0 **** 0.06
26439 H 96.85902258171991 80.38784427936864 153.36686298379374 H 0.0 **** 0.06
26440 H 96.06775166009736 81.44268615963128 152.17046201203453 H 0.0 **** 0.06
26441 C 156.70183104992395 110.75495510236988 90.40881485989946 C 0.0 **** -0.24
26442 H 156.12408211926513 110.37842046085728 91.25248077799712 H 0.0 **** 0.06
26443 H 156.71508973115132 111.84421004375736 90.43437309863283 H 0.0 **** 0.06
26444 H 156.24478046337762 110.41822015420996 89.47769793492485 H 0.0 **** 0.06
26445 H 157.72213939087393 110.37617451175714 90.46941616864588 H 0.0 **** 0.06
26446 C 33.383823702082466 0.6027996829775475 10.383512184127568 C 0.0 **** -0.24
26447 H 34.02001546440157 1.0215491429099757 9.604216811982951 H 0.0 **** 0.06
26448 H 32.45475351793462 1.1712721595075664 10.439127220612534 H 0.0 **** 0.06
26449 H 33.9011452812349 0.6576806560318857 11.342352563375641 H 0.0 **** 0.06
26450 H 33.160024771620385 -0.4376359164046164 10.149695707523563 H 0.0 **** 0.06
26451 C 162.36798493030253 140.30998913576576 27.29002431051694 C 0.0 **** -0.24
26452 H 162.27573779763907 139.27491352729572 26.959984415705577 H 0.0 **** 0.06
26453 H 163.27354609524193 140.74643039316817 26.870028668446338 H 0.0 **** 0.06
26454 H 162.418895005168 140.34089209625773 28.378845948200023 H 0.0 **** 0.06
26455 H 161.50019764322835 140.87660847879965 26.951497911548245 H 0.0 **** 0.06
26456 C 67.17236473269936 52.377328722994775 125.02951877044983 C 0.0 **** -0.24
26457 H 66.2966993946554 51.732116310727804 124.9563236166682 H 0.0 **** 0.06
26458 H 67.73441365842571 52.12576681119708 125.92833351601895 H 0.0 **** 0.06
26459 H 66.85206926965196 53.418462386974255 125.08095708592622 H 0.0 **** 0.06
26460 H 67.80303237636615 52.23416387028831 124.15268099400414 H 0.0 **** 0.06
26461 C 24.32360050072066 32.52925822479395 43.61677127573881 C 0.0 **** -0.24
26462 H 24.24201164392892 32.39976922134153 44.69632777659672 H 0.0 **** 0.06
26463 H 23.32620974626394 32.57442142680789 43.17995058035007 H 0.0 **** 0.06
26464 H 24.869406265147347 31.687892954890557 43.19034554729211 H 0.0 **** 0.06
26465 H 24.856524402783776 33.45545664650086 43.4017574134574 H 0.0 **** 0.06
26466 C 17.90002413214956 13.466819655954332 85.12100905997198 C 0.0 **** -0.24
26467 H 17.41410657253332 13.41030628185041 86.09510234536138 H 0.0 **** 0.06
26468 H 18.354268850609515 12.504101932070043 84.88575878242645 H 0.0 **** 0.06
26469 H 18.670919535099053 14.237374571370893 85.1439170184939 H 0.0 **** 0.06
26470 H 17.15961509741809 13.716243009492821 84.36099997221525 H 0.0 **** 0.06
26471 C 184.50542367640003 164.44660262437634 156.96449860244408 C 0.0 **** -0.24
26472 H 184.96455144788365 163.55332738763693 157.38854036357395 H 0.0 **** 0.06
26473 H 183.79605517974824 164.15597382495363 156.1896633950925 H 0.0 **** 0.06
26474 H 185.27774152157366 165.08163188342027 156.53141047094917 H 0.0 **** 0.06
26475 H 183.98316373333057 164.99365456035608 157.74966234609624 H 0.0 **** 0.06
26476 C 40.29457593820672 182.25439845985935 143.14929198047534 C 0.0 **** -0.24
26477 H 40.818606104469154 182.23635506817755 144.10527430364334 H 0.0 **** 0.06
26478 H 41.020905675735264 182.22178726256794 142.33651032876878 H 0.0 **** 0.06
26479 H 39.70698743723051 183.1690018480265 143.07473502421306 H 0.0 **** 0.06
26480 H 39.63317225532617 181.3918071686012 143.08118362799925 H 0.0 **** 0.06
26481 C 125.0322106390302 138.7043000847645 172.5886435786289 C 0.0 **** -0.24
26482 H 125.04944595705798 139.7824832691005 172.75141752294812 H 0.0 **** 0.06
26483 H 124.60675741070231 138.49177646787115 171.607358884687 H 0.0 **** 0.06
26484 H 124.42352834403742 138.23099609174517 173.35897243866984 H 0.0 **** 0.06
26485 H 126.0478831542594 138.31364855251394 172.63759302339184 H 0.0 **** 0.06
26486 C 15.898968675055954 117.99930407694086 171.38753086980392 C 0.0 **** -0.24
26487 H 14.980086749068704 118.58360579889313 171.35624456028307 H 0.0 **** 0.06
26488 H 16.323614561218164 117.9368669651775 170.385566377928 H 0.0 **** 0.06
26489 H 15.679812002738288 116.99677703969547 171.75394080023207 H 0.0 **** 0.06
26490 H 16.613617696941276 118.48159237108422 172.05525399108916 H 0.0 **** 0.06
26491 C 141.1908762697605 183.12614796916188 152.09966961032944 C 0.0 **** -0.24
26492 H 141.4411533262881 184.1793077690393 152.2299316930414 H 0.0 **** 0.06
26493 H 140.2831061993266 182.8965010223986 152.65765360919377 H 0.0 **** 0.06
26494 H 142.01023023382817 182.5101554433142 152.46880458137207 H 0.0 **** 0.06
26495 H 141.02939847428775 182.91991649104608 151.0411967085929 H 0.0 **** 0.06
26496 C 56.6628389467146 152.35909208723592 183.6917251220417 C 0.0 **** -0.24
26497 H 56.85403181616846 151.5245212875648 184.36642078273707 H 0.0 **** 0.06
26498 H 55.58919250351994 152.53954321724763 183.6335522607759 H 0.0 **** 0.06
26499 H 57.04615155946726 152.11884947103883 182.69989736681066 H 0.0 **** 0.06
26500 H 57.16187655404855 153.2513942692938 184.0678934514213 H 0.0 **** 0.06
26501 C 61.465214343614264 75.89830719158297 25.67619715597951 C 0.0 **** -0.24
26502 H 60.83499997363532 76.77384279533833 25.51873723048213 H 0.0 **** 0.06
26503 H 60.84753953685012 74.99996048025575 25.661150588286375 H 0.0 **** 0.06
26504 H 61.96541093635889 75.97940067447249 26.641128020335657 H 0.0 **** 0.06
26505 H 62.21117970937661 75.84002357307081 24.88390236013562 H 0.0 **** 0.06
26506 C 51.30635873654791 118.06493226168789 173.49824727957974 C 0.0 **** -0.24
26507 H 50.53581351458712 118.38204076876843 172.79532436332516 H 0.0 **** 0.06
26508 H 51.75643768291974 118.94223021717659 173.9639345425599 H 0.0 **** 0.06
26509 H 52.07336833537897 117.5015683509273 172.9676752109422 H 0.0 **** 0.06
26510 H 50.85955254337466 117.43492332541632 174.26741977710185 H 0.0 **** 0.06
26511 C 70.09016632623286 90.90302713008462 94.34503474638196 C 0.0 **** -0.24
26512 H 71.0435110315467 91.35907627393034 94.07720751430507 H 0.0 **** 0.06
26513 H 69.2883496606292 91.62772516335615 94.19971721115222 H 0.0 **** 0.06
26514 H 70.1170113066708 90.59477856405648 95.38954683257772 H 0.0 **** 0.06
26515 H 69.91332846831813 90.03374316331194 93.71252301286252 H 0.0 **** 0.06
26516 C 174.72807619429608 30.570455524241254 138.00462089282922 C 0.0 **** -0.24
26517 H 174.4004624120866 30.804069684253477 139.01666434478057 H 0.0 **** 0.06
26518 H 174.72417415831325 31.47951199625342 137.40194062468964 H 0.0 **** 0.06
26519 H 174.05019283846278 29.838362844427166 137.5635020018936 H 0.0 **** 0.06
26520 H 175.73701598246282 30.159302656122748 138.03516892211496 H 0.0 **** 0.06
26521 C 150.66154673273596 30.060242242479376 64.04698977690464 C 0.0 **** -0.24
26522 H 150.05437534285903 30.29966332835579 63.17365775260593 H 0.0 **** 0.06
26523 H 150.94211745223413 29.007319344505845 64.01652979892435 H 0.0 **** 0.06
26524 H 150.0892108523894 30.258578681649 64.95277321768108 H 0.0 **** 0.06
26525 H 151.56076060990705 30.6770594852336 64.04321100396494 H 0.0 **** 0.06
26526 C 87.28659933116866 99.87331837015911 104.14182643368893 C 0.0 **** -0.24
26527 H 87.31050087735663 100.95913193444225 104.23515910302307 H 0.0 **** 0.06
26528 H 88.20391210530109 99.45231290780079 104.553305517429 H 0.0 **** 0.06
26529 H 87.20266213584857 99.60157778176297 103.0883697301238 H 0.0 **** 0.06
26530 H 86.42974677184644 99.48037315859641 104.68750406069763 H 0.0 **** 0.06
26531 C 38.59289464751535 26.877273408146493 107.17861687928222 C 0.0 **** -0.24
26532 H 38.8749858935205 25.900014059723446 106.78683242556353 H 0.0 **** 0.06
26533 H 38.007410276117525 27.41242821207942 106.43093462551393 H 0.0 **** 0.06
26534 H 39.49163329045325 27.447720834592985 107.41293706027615 H 0.0 **** 0.06
26535 H 37.99869863614187 26.748769662143445 108.08295544058431 H 0.0 **** 0.06
26536 C 76.63711549723666 106.9625373557552 143.8024017756561 C 0.0 **** -0.24
26537 H 76.1518403912226 106.91402747328961 142.8281229652727 H 0.0 **** 0.06
26538 H 76.79506351260477 105.95200058569445 144.17965266382913 H 0.0 **** 0.06
26539 H 76.00192226613956 107.51412495338165 144.49687934325448 H 0.0 **** 0.06
26540 H 77.59653371715865 107.4697748758026 143.7055249598697 H 0.0 **** 0.06
26541 C 56.609912662899944 166.29445236456397 85.69685545616854 C 0.0 **** -0.24
26542 H 55.70749792848834 166.2036880299794 85.09178284832018 H 0.0 **** 0.06
26543 H 56.97953073505384 165.30079172103729 85.94892757891274 H 0.0 **** 0.06
26544 H 56.380729550198055 166.8409254749682 86.61126924877753 H 0.0 **** 0.06
26545 H 57.371974695119604 166.83373003375655 85.13275222178758 H 0.0 **** 0.06
26546 C 145.65119755478366 61.73515929378988 17.808468897204733 C 0.0 **** -0.24
26547 H 145.4357762823285 62.09430881462683 16.801827116028598 H 0.0 **** 0.06
26548 H 144.95283525954954 60.93963110831231 18.066738821065037 H 0.0 **** 0.06
26549 H 145.54594378821452 62.55686817879439 18.51661754519857 H 0.0 **** 0.06
26550 H 146.67074623681046 61.35251029343311 17.846132823669635 H 0.0 **** 0.06
26551 C 177.139637135106 148.31618518466573 72.64623586735091 C 0.0 **** -0.24
26552 H 176.47998559770906 149.1811507637567 72.5866646613559 H 0.0 **** 0.06
26553 H 177.54971584267406 148.10294140618294 71.65869856341001 H 0.0 **** 0.06
26554 H 176.57534037564685 147.45202270503592 72.99862453204308 H 0.0 **** 0.06
26555 H 177.95287798866252 148.52641215950405 73.34011645491188 H 0.0 **** 0.06
26556 C 98.00827578270169 8.146419775846141 180.9047666889603 C 0.0 **** -0.24
26557 H 98.51825739670933 7.621441985149133 181.71213551525207 H 0.0 **** 0.06
26558 H 96.94686457611031 7.897088843601978 180.92394285414173 H 0.0 **** 0.06
26559 H 98.43499095826648 7.843846024398644 179.94897035898495 H 0.0 **** 0.06
26560 H 98.13280323481924 9.22110843027582 181.03509150145084 H 0.0 **** 0.06
26561 C 136.77929549293765 86.00285572321779 41.97966153653806 C 0.0 **** -0.24
26562 H 137.37151877225358 86.246968537912 41.09794793486685 H 0.0 **** 0.06
26563 H 136.98903906964404 84.97737896561492 42.285261662069274 H 0.0 **** 0.06
26564 H 135.71994504572632 86.10225541848591 41.74407995524129 H 0.0 **** 0.06
26565 H 137.03638492897278 86.68403919433665 42.790214705101675 H 0.0 **** 0.06
26566 C 80.84561809761942 6.959769277438937 74.0160772779566 C 0.0 **** -0.24
26567 H 79.83143516103003 6.934497004449952 74.41375130023255 H 0.0 **** 0.06
26568 H 81.30221109364649 7.92259911204448 74.24644420437872 H 0.0 **** 0.06
26569 H 80.81526476576678 6.820692947843128 72.9357015111397 H 0.0 **** 0.06
26570 H 81.43315729089649 6.16028358607997 74.46932194821618 H 0.0 **** 0.06
26571 C 85.85878050330417 182.8473494722469 181.81576508864867 C 0.0 **** -0.24
26572 H 85.78429306520935 183.72641320588423 181.17591985178376 H 0.0 **** 0.06
26573 H 86.84611975027137 182.81763550039744 182.27689051717397 H 0.0 **** 0.06
26574 H 85.70911596629215 181.94876424620503 181.2165752185465 H 0.0 **** 0.06
26575 H 85.09558177515663 182.89702978926988 182.59148339803386 H 0.0 **** 0.06
26576 C 9.399324183236558 0.8075855726983718 101.27292335928712 C 0.0 **** -0.24
26577 H 9.38937671413089 0.5569546429512116 100.21206731166478 H 0.0 **** 0.06
26578 H 8.891240175310287 1.759167557760236 101.42609876708775 H 0.0 **** 0.06
26579 H 10.430305076790546 0.8856121059961879 101.61745290920919 H 0.0 **** 0.06
26580 H 8.88601930379366 0.026700095443857208 101.83496371491839 H 0.0 **** 0.06
26581 C 130.5838303055724 24.780874270922027 131.91162325520315 C 0.0 **** -0.24
26582 H 130.33693493051908 25.665059774606092 131.32309198416095 H 0.0 **** 0.06
26583 H 130.41493478650773 24.989820489066148 132.96750682803957 H 0.0 **** 0.06
26584 H 131.6313455319285 24.521274667646864 131.7549347499948 H 0.0 **** 0.06
26585 H 129.9531375949855 23.949225859715668 131.59911891491487 H 0.0 **** 0.06
26586 C 158.56030578593507 28.55661585759654 91.9770351937989 C 0.0 **** -0.24
26587 H 158.36801398220916 29.034702747811707 91.01622086948474 H 0.0 **** 0.06
26588 H 157.62452458336796 28.17633622253939 92.38637038308026 H 0.0 **** 0.06
26589 H 158.98967770412182 29.28477177900635 92.6657696082027 H 0.0 **** 0.06
26590 H 159.25892605235865 27.731983604429885 91.8386743897105 H 0.0 **** 0.06
26591 C 146.11534379626283 65.01322898649694 89.64522069137551 C 0.0 **** -0.24
26592 H 146.76228224309776 65.61173275573627 90.2867705747676 H 0.0 **** 0.06
26593 H 145.47128329597192 65.67371588006397 89.0628526370529 H 0.0 **** 0.06
26594 H 145.50154710234875 64.35628519515944 90.26051071011445 H 0.0 **** 0.06
26595 H 146.72584775803082 64.41357994792553 88.97046866756726 H 0.0 **** 0.06
26596 C 32.58332428909286 151.9283934067373 106.12124091405529 C 0.0 **** -0.24
26597 H 33.362612140015145 151.18346005997856 106.28550638398069 H 0.0 **** 0.06
26598 H 32.124476055259876 151.7643427718444 105.14626601748087 H 0.0 **** 0.06
26599 H 33.02167825546377 152.92567857674538 106.1547736890562 H 0.0 **** 0.06
26600 H 31.82590665376901 151.83771322260833 106.8996206319013 H 0.0 **** 0.06
26601 C 179.89957294257584 125.01697373723273 61.89333341206344 C 0.0 **** -0.24
26602 H 180.69087405672846 124.33605967913697 62.20364439451649 H 0.0 **** 0.06
26603 H 179.80141557606765 125.81807708670577 62.6261846433772 H 0.0 **** 0.06
26604 H 178.9577666123509 124.47255799400715 61.82251176603802 H 0.0 **** 0.06
26605 H 180.1470646240696 125.44150090347783 60.92025894315262 H 0.0 **** 0.06
26606 C 52.66853318549721 53.28353360199044 119.81181544775318 C 0.0 **** -0.24
26607 H 53.64276127463991 52.838604174385594 119.61107486855472 H 0.0 **** 0.06
26608 H 52.211558420486 52.786392488374815 120.66762567645132 H 0.0 **** 0.06
26609 H 52.02822951560492 53.16440589950592 118.93781363826444 H 0.0 **** 0.06
26610 H 52.791350472598054 54.344401424022195 120.02939241232899 H 0.0 **** 0.06
26611 C 81.49953628571774 134.5592345153491 12.871029951082932 C 0.0 **** -0.24
26612 H 81.42195797656325 133.81394998136886 12.078860174593927 H 0.0 **** 0.06
26613 H 82.37165659647678 134.34313037635894 13.488036859621417 H 0.0 **** 0.06
26614 H 80.60155078945235 134.52914924602044 13.486731376706501 H 0.0 **** 0.06
26615 H 81.60428040466911 135.5496612552597 12.428208425750967 H 0.0 **** 0.06
26616 C 29.320858748655766 94.81385401567566 16.501070458730133 C 0.0 **** -0.24
26617 H 28.409668417279747 94.90022905968219 15.909691663820944 H 0.0 **** 0.06
26618 H 30.175101075857256 95.12521197529556 15.899919371655074 H 0.0 **** 0.06
26619 H 29.45402898319884 93.77770555290137 16.81342351974272 H 0.0 **** 0.06
26620 H 29.242928265760014 95.45214160902454 17.38150340034857 H 0.0 **** 0.06
26621 C 76.55544217345115 109.9020237262111 56.615098673817485 C 0.0 **** -0.24
26622 H 77.5618367173795 109.64439650545836 56.285090188424164 H 0.0 **** 0.06
26623 H 75.84621314933088 109.17540722947228 56.217332350135365 H 0.0 **** 0.06
26624 H 76.29839346812662 110.89717501357399 56.25277253461326 H 0.0 **** 0.06
26625 H 76.51590590287974 109.89080259101206 57.704448176645656 H 0.0 **** 0.06
26626 C 15.60452011570937 158.34879663361312 135.10284416216916 C 0.0 **** -0.24
26627 H 14.629994199089168 157.87195503910053 135.20336118595247 H 0.0 **** 0.06
26628 H 16.376637124901166 157.67997077626586 135.48232491920754 H 0.0 **** 0.06
26629 H 15.615350922394875 159.2768470891729 135.67378408074728 H 0.0 **** 0.06
26630 H 15.796098216452357 158.56641362991314 134.05190646276913 H 0.0 **** 0.06
26631 C 153.31159269148304 53.297908972837874 167.82942233150095 C 0.0 **** -0.24
26632 H 152.89600455429166 52.62592305301315 168.5800732346757 H 0.0 **** 0.06
26633 H 153.23308531564555 52.83615601072809 166.8455828436778 H 0.0 **** 0.06
26634 H 154.35931125764364 53.49255221489106 168.05675723287874 H 0.0 **** 0.06
26635 H 152.75813150369072 54.23709555731382 167.8366780055428 H 0.0 **** 0.06
26636 C 79.59810447319984 22.38204850692162 3.12924966421145 C 0.0 **** -0.24
26637 H 79.666704425312 22.25700079755447 4.2105435723130995 H 0.0 **** 0.06
26638 H 80.406060844281 23.027642029864865 2.7865532356115352 H 0.0 **** 0.06
26639 H 78.63866066635646 22.834545935502717 2.876496725033988 H 0.0 **** 0.06
26640 H 79.678975029838 21.408052709564572 2.6454113308690737 H 0.0 **** 0.06
26641 C 3.748640324550614 146.04909698944496 59.9453354296632 C 0.0 **** -0.24
26642 H 4.793085633637304 145.8926999592187 59.677947515093166 H 0.0 **** 0.06
26643 H 3.6763793557031903 146.27712369348342 61.00899399792816 H 0.0 **** 0.06
26644 H 3.178673968173399 145.1461655899785 59.72816364486731 H 0.0 **** 0.06
26645 H 3.345330122154188 146.8809770913075 59.36692401190058 H 0.0 **** 0.06
26646 C 11.77230987713682 139.84989717930802 75.31545994742976 C 0.0 **** -0.24
26647 H 12.691274586637917 139.4112461412201 75.70554265244756 H 0.0 **** 0.06
26648 H 10.927337563013225 139.21237535356516 75.57690801059331 H 0.0 **** 0.06
26649 H 11.841675900745258 139.93533164070737 74.23149286032948 H 0.0 **** 0.06
26650 H 11.628848051523732 140.83840928366243 75.75054828454635 H 0.0 **** 0.06
26651 C 75.4174415628494 175.03677442923342 36.52810103155136 C 0.0 **** -0.24
26652 H 75.61932379555007 174.1410307123485 35.94128069668261 H 0.0 **** 0.06
26653 H 74.80187994321729 174.77500758958428 37.38907803041644 H 0.0 **** 0.06
26654 H 74.8896551396781 175.76424277463173 35.91232296053698 H 0.0 **** 0.06
26655 H 76.35899326408992 175.4656533297741 36.87100283121114 H 0.0 **** 0.06
26656 C 78.4975419758369 85.39340882727087 20.678413507988353 C 0.0 **** -0.24
26657 H 79.44135691718687 84.88169586986412 20.48751407613271 H 0.0 **** 0.06
26658 H 77.84069809855652 84.74120522189422 21.25467903779341 H 0.0 **** 0.06
26659 H 78.02207189695946 85.64332329196777 19.72979644346956 H 0.0 **** 0.06
26660 H 78.68689917949753 86.30689889438135 21.24162758434381 H 0.0 **** 0.06
26661 C 39.341974880977574 28.76461959862762 155.8305548753127 C 0.0 **** -0.24
26662 H 39.35872950450168 27.871015196953124 155.2054294031644 H 0.0 **** 0.06
26663 H 40.20049681893117 28.7520869957157 156.50249861889833 H 0.0 **** 0.06
26664 H 38.42303214986835 28.78136002110584 156.4152533801015 H 0.0 **** 0.06
26665 H 39.387601327133424 29.651002434757885 155.1980012783995 H 0.0 **** 0.06
26666 C 102.80304868715825 54.164534063404176 157.75688328943244 C 0.0 **** -0.24
26667 H 103.75798179777615 54.0396396668653 158.26775951395075 H 0.0 **** 0.06
26668 H 102.10454095463734 53.400590627010615 158.10014669809036 H 0.0 **** 0.06
26669 H 102.9507784861774 54.06518659356175 156.68132373258413 H 0.0 **** 0.06
26670 H 102.39984423479717 55.1527641936608 157.97861003170215 H 0.0 **** 0.06
26671 C 69.64932687938258 106.42889055426373 158.81338364523543 C 0.0 **** -0.24
26672 H 70.02241156449873 106.64394530772334 157.81282650256838 H 0.0 **** 0.06
26673 H 68.59557340623068 106.15674177892858 158.75831995409385 H 0.0 **** 0.06
26674 H 69.76431694034177 107.31289971893379 159.44088619868796 H 0.0 **** 0.06
26675 H 70.216654383583 105.6029141828965 159.24268529610748 H 0.0 **** 0.06
26676 C 178.15904802195666 159.35956785034313 117.00395829615796 C 0.0 **** -0.24
26677 H 177.37478123612476 158.74499507783577 117.44569268948162 H 0.0 **** 0.06
26678 H 179.01639492112923 159.39374075962832 117.67722860192704 H 0.0 **** 0.06
26679 H 177.78227019520278 160.36913546744518 116.84228566453292 H 0.0 **** 0.06
26680 H 178.4633005406894 158.92844203635406 116.04969977564731 H 0.0 **** 0.06
26681 C 122.2252812126922 59.49597313287306 174.56309688869896 C 0.0 **** -0.24
26682 H 122.9499556050542 59.16187799439635 175.30451565464358 H 0.0 **** 0.06
26683 H 121.50619248125865 60.166754225677394 175.03323887180193 H 0.0 **** 0.06
26684 H 121.70185953122508 58.63321634166441 174.1516946370037 H 0.0 **** 0.06
26685 H 122.74356646559714 60.02294322418402 173.7607046321739 H 0.0 **** 0.06
26686 C 89.82853467575262 70.12648682629697 151.9261946901786 C 0.0 **** -0.24
26687 H 89.34795737569323 71.03158980568435 152.29721546005797 H 0.0 **** 0.06
26688 H 89.48980027926325 69.27072647765294 152.51038952384542 H 0.0 **** 0.06
26689 H 90.90989106326572 70.22481061633067 152.0199398284152 H 0.0 **** 0.06
26690 H 89.56583070896647 69.9786631389727 150.8784751865092 H 0.0 **** 0.06
26691 C 30.6052373228502 14.745083180543787 68.29662399070855 C 0.0 **** -0.24
26692 H 29.58519828002329 15.00940704427785 68.57548526374049 H 0.0 **** 0.06
26693 H 30.7328611519564 13.66480948745891 68.36677576848406 H 0.0 **** 0.06
26694 H 31.30527888410279 15.239002600350403 68.97205040025267 H 0.0 **** 0.06
26695 H 30.797636255265274 15.069509350758722 67.27424849229533 H 0.0 **** 0.06
26696 C 89.59881332341764 75.99664655558244 35.452572150831884 C 0.0 **** -0.24
26697 H 90.59318690426964 76.33801751228206 35.74215019074762 H 0.0 **** 0.06
26698 H 89.66316610954179 75.45369583625119 34.50940376266567 H 0.0 **** 0.06
26699 H 88.94085663086098 76.85686557434559 35.3339485218213 H 0.0 **** 0.06
26700 H 89.20214621756809 75.33832630432806 36.22452615276177 H 0.0 **** 0.06
26701 C 176.68570477635353 117.20715402149052 91.95112785568578 C 0.0 **** -0.24
26702 H 176.6151272373292 116.3859838384454 91.23804812884391 H 0.0 **** 0.06
26703 H 176.89350677769542 118.13463810187118 91.41774059734253 H 0.0 **** 0.06
26704 H 177.4899111331683 117.00536812135913 92.65798068674745 H 0.0 **** 0.06
26705 H 175.74352491514446 117.3014268290484 92.4907722782465 H 0.0 **** 0.06
26706 C 70.19294362472169 169.74893278396917 63.0089044900181 C 0.0 **** -0.24
26707 H 70.24921410185112 168.70462300189672 62.70412745755192 H 0.0 **** 0.06
26708 H 70.30990933106 169.81873935315008 64.09006146920989 H 0.0 **** 0.06
26709 H 69.22551015356817 170.1606117180256 62.72010816927575 H 0.0 **** 0.06
26710 H 70.98751094989325 170.31350796080886 62.5199801358703 H 0.0 **** 0.06
26711 C 149.8825993162152 51.6546078690497 93.2021281751121 C 0.0 **** -0.24
26712 H 149.07549027268564 50.96400721457121 93.446257418412 H 0.0 **** 0.06
26713 H 149.4680100538053 52.64506928170522 93.01182231136524 H 0.0 **** 0.06
26714 H 150.40625264838533 51.302935384041064 92.31427178661271 H 0.0 **** 0.06
26715 H 150.5808068827368 51.70752445215197 94.03834132270269 H 0.0 **** 0.06
26716 C 147.08481263041867 19.23276498187306 171.14880218437838 C 0.0 **** -0.24
26717 H 147.89247418546748 19.925859919814656 171.381732548121 H 0.0 **** 0.06
26718 H 147.23744546867457 18.818173256092336 170.15214362151002 H 0.0 **** 0.06
26719 H 146.13232431422665 19.762804737045315 171.18147108219932 H 0.0 **** 0.06
26720 H 147.07577248064192 18.42529363213913 171.88168599895292 H 0.0 **** 0.06
26721 C 105.72886537300205 65.82129765217223 46.24533664333961 C 0.0 **** -0.24
26722 H 106.46459990210924 66.33001319814582 45.6227400244704 H 0.0 **** 0.06
26723 H 105.17849760032404 66.55718592703201 46.83241342664277 H 0.0 **** 0.06
26724 H 106.23635236990573 65.12769068672624 46.915129647020436 H 0.0 **** 0.06
26725 H 105.03385520559128 65.27049432528558 45.61050441474566 H 0.0 **** 0.06
26726 C 43.233555495833855 47.86778685114632 166.6268202283053 C 0.0 **** -0.24
26727 H 43.707535044751666 48.786186695580426 166.97490715030997 H 0.0 **** 0.06
26728 H 42.49578872456419 47.5398346803363 167.36038070576842 H 0.0 **** 0.06
26729 H 43.99087869056251 47.093433574894505 166.5008759220563 H 0.0 **** 0.06
26730 H 42.740445024092566 48.052604309206004 165.67211087464543 H 0.0 **** 0.06
26731 C 123.50167896499961 164.67265733325075 143.08210034301578 C 0.0 **** -0.24
26732 H 123.90624235287139 165.65068729629667 143.3427864023152 H 0.0 **** 0.06
26733 H 123.55217688540769 164.01553276312364 143.94988407501415 H 0.0 **** 0.06
26734 H 124.08620860981232 164.24404213043266 142.2672061790306 H 0.0 **** 0.06
26735 H 122.4643326936028 164.7813438863459 142.7671078266689 H 0.0 **** 0.06
26736 C 2.511955100659179 21.108496263810466 125.27918787134469 C 0.0 **** -0.24
26737 H 3.441461975353292 20.840277235167235 125.78215894966006 H 0.0 **** 0.06
26738 H 2.398361617971375 22.192777481178723 125.28145442134924 H 0.0 **** 0.06
26739 H 1.6720932021302133 20.653240826326282 125.80301018320763 H 0.0 **** 0.06
26740 H 2.5391705251772407 20.74767179988679 124.2506999494634 H 0.0 **** 0.06
26741 C 58.72499504163112 126.06890207897261 166.78510924228954 C 0.0 **** -0.24
26742 H 58.51127223756126 126.93075356037095 167.4166224486427 H 0.0 **** 0.06
26743 H 59.804540343703366 125.95969973630228 166.67303695815397 H 0.0 **** 0.06
26744 H 58.27059266525001 126.21554366547367 165.80466387550524 H 0.0 **** 0.06
26745 H 58.31479551674268 125.17032124060363 167.24603460656812 H 0.0 **** 0.06
26746 C 97.20955854693945 88.29974009781297 2.1727652362255014 C 0.0 **** -0.24
26747 H 97.17841405195513 88.99996962395396 1.338029353616406 H 0.0 **** 0.06
26748 H 98.02154869844024 88.57328939340043 2.846603601690049 H 0.0 **** 0.06
26749 H 97.37462270590613 87.29122672802124 1.795184860417777 H 0.0 **** 0.06
26750 H 96.26262900167457 88.33537256957406 2.7116354729490695 H 0.0 **** 0.06
26751 C 90.72434095536876 19.01410878440953 90.71965226266921 C 0.0 **** -0.24
26752 H 89.634889643276 19.004327961451565 90.69292161131496 H 0.0 **** 0.06
26753 H 91.06866439227396 18.59092615848641 91.66299800275003 H 0.0 **** 0.06
26754 H 91.08018268500844 20.04079052154657 90.62967085107154 H 0.0 **** 0.06
26755 H 91.11285857145405 18.42183022480117 89.89119192405686 H 0.0 **** 0.06
26756 C 140.11139439612572 43.725741330703116 123.42166238808778 C 0.0 **** -0.24
26757 H 141.06277300207086 43.28892913714455 123.1204727753352 H 0.0 **** 0.06
26758 H 139.47340053337956 43.84842544728251 122.54561681993397 H 0.0 **** 0.06
26759 H 140.28795992987705 44.69838816387289 123.8813809157935 H 0.0 **** 0.06
26760 H 139.62061434350596 43.06836725128305 124.13921421029221 H 0.0 **** 0.06
26761 C 112.4276265451769 142.9916257980671 174.63446911707524 C 0.0 **** -0.24
26762 H 111.54028158645457 142.38293933155802 174.80871341794142 H 0.0 **** 0.06
26763 H 112.4583299632335 143.29710893965614 173.58761823734437 H 0.0 **** 0.06
26764 H 113.3187983633768 142.40979459835057 174.86883122428216 H 0.0 **** 0.06
26765 H 112.39274761857547 143.87592803720418 175.27062976404008 H 0.0 **** 0.06
26766 C 124.11941176666807 140.87356881745342 54.644610560994465 C 0.0 **** -0.24
26767 H 124.5081411356228 140.76314081048014 55.656385965337705 H 0.0 **** 0.06
26768 H 124.78053548983962 140.36469783812998 53.94345929268849 H 0.0 **** 0.06
26769 H 124.06388115344532 141.93217978588467 54.389646744574634 H 0.0 **** 0.06
26770 H 123.12286027624037 140.43494412345336 54.58820238381344 H 0.0 **** 0.06
26771 C 29.983507442237922 21.278036278282002 47.57936036638603 C 0.0 **** -0.24
26772 H 29.5429566254668 20.34897177387319 47.21667937081264 H 0.0 **** 0.06
26773 H 29.337090531905858 21.714690296209966 48.34018478234924 H 0.0 **** 0.06
26774 H 30.09039484443251 21.976405517382403 46.748920802680004 H 0.0 **** 0.06
26775 H 30.96319147027519 21.071607724911786 48.00872010740028 H 0.0 **** 0.06
26776 C 81.46833946525523 99.42437027163125 107.4426798750348 C 0.0 **** -0.24
26777 H 81.29482235184933 98.34781030525203 107.45487993449245 H 0.0 **** 0.06
26778 H 81.43648519805815 99.78556367382448 106.4144318448457 H 0.0 **** 0.06
26779 H 82.44683345952505 99.63831200647662 107.87241560238135 H 0.0 **** 0.06
26780 H 80.69635064687586 99.92396146498201 108.02839847637364 H 0.0 **** 0.06
26781 C 26.552397462765327 68.95907130875698 151.8264355862234 C 0.0 **** -0.24
26782 H 27.64028723810972 68.94874152905393 151.88365853182984 H 0.0 **** 0.06
26783 H 26.180793223069713 67.93398739378641 151.81391988426617 H 0.0 **** 0.06
26784 H 26.24104985230869 69.46983712170096 150.9158251939448 H 0.0 **** 0.06
26785 H 26.14794747062956 69.48141986744507 152.69302807016533 H 0.0 **** 0.06
26786 C 82.80969034919495 72.48124978094359 134.6844238841731 C 0.0 **** -0.24
26787 H 82.27368938043243 71.84971356634233 133.9753178584503 H 0.0 **** 0.06
26788 H 82.54759125374093 72.18834515647926 135.7007669817773 H 0.0 **** 0.06
26789 H 82.53351356848616 73.52327589434334 134.52358133830808 H 0.0 **** 0.06
26790 H 83.88262918233823 72.36191004274829 134.53625967492252 H 0.0 **** 0.06
26791 C 2.225074426665529 165.69594625390823 84.62496088524631 C 0.0 **** -0.24
26792 H 1.5484541650646406 164.8596129623092 84.44836808001588 H 0.0 **** 0.06
26793 H 3.2107393393501624 165.31586296778283 84.89289507670986 H 0.0 **** 0.06
26794 H 1.8375184747476112 166.30958431510953 85.43810851864282 H 0.0 **** 0.06
26795 H 2.3009315048644794 166.29865301161044 83.71949710893216 H 0.0 **** 0.06
26796 C 58.47941391613779 85.98870646891622 171.9653931813565 C 0.0 **** -0.24
26797 H 58.94260678576268 86.97486562570118 171.98141899715856 H 0.0 **** 0.06
26798 H 57.39609173620033 86.0961497393133 172.0219384456767 H 0.0 **** 0.06
26799 H 58.832292981045725 85.40877947863747 172.81823514596897 H 0.0 **** 0.06
26800 H 58.74578136057323 85.47676844781562 171.0410765728271 H 0.0 **** 0.06
26801 C 50.409833921402054 124.65777325601051 120.8613053847266 C 0.0 **** -0.24
26802 H 50.6417228370358 123.69915141843855 121.32504998984992 H 0.0 **** 0.06
26803 H 49.541097807875246 125.09755939137968 121.3523258638608 H 0.0 **** 0.06
26804 H 50.1921670946425 124.50722086973373 119.80447783694312 H 0.0 **** 0.06
26805 H 51.263307759752124 125.32742744095516 120.96472699477626 H 0.0 **** 0.06
26806 C 155.93925447577078 14.518313080991874 36.64124284692048 C 0.0 **** -0.24
26807 H 156.2673067547352 15.106722384087334 35.784570477599516 H 0.0 **** 0.06
26808 H 156.63579393287458 13.696508352346882 36.805870075192814 H 0.0 **** 0.06
26809 H 154.94410983641237 14.117325538099323 36.44626457738363 H 0.0 **** 0.06
26810 H 155.90711714495353 15.151725119730202 37.52736063153833 H 0.0 **** 0.06
26811 C 47.865491622680565 112.75685253597977 184.49423446860436 C 0.0 **** -0.24
26812 H 46.958965433282145 112.43801154844378 185.00963536128512 H 0.0 **** 0.06
26813 H 47.98822137349137 113.83369974223824 184.60863664152745 H 0.0 **** 0.06
26814 H 47.78651127924795 112.51056962968273 183.43537791653682 H 0.0 **** 0.06
26815 H 48.72586246777513 112.24532875073633 184.9237024483765 H 0.0 **** 0.06
26816 C 85.12691372481196 116.76767531149511 126.2806004743091 C 0.0 **** -0.24
26817 H 84.57245537775758 115.8586873306906 126.04749930890432 H 0.0 **** 0.06
26818 H 85.20426548710869 117.38536674118961 125.38548853615754 H 0.0 **** 0.06
26819 H 86.12659154192433 116.50441542347079 126.62764785047062 H 0.0 **** 0.06
26820 H 84.60618753852707 117.32133284815774 127.0608785627449 H 0.0 **** 0.06
26821 C 14.634675961863145 75.94946448134613 69.99067068604465 C 0.0 **** -0.24
26822 H 15.690787945855597 75.69681666262801 69.89676159054704 H 0.0 **** 0.06
26823 H 14.169576291356108 75.93938784669109 69.00454993293215 H 0.0 **** 0.06
26824 H 14.53687680942523 76.9437463232976 70.4282085070395 H 0.0 **** 0.06
26825 H 14.142643750981541 75.2198737178391 70.63230370794126 H 0.0 **** 0.06
26826 C 48.81840779549171 144.84075022668227 159.0895657847536 C 0.0 **** -0.24
26827 H 48.40286738582694 144.78005471269083 158.08430733236986 H 0.0 **** 0.06
26828 H 49.85069097159969 144.48927127689566 159.07797335076884 H 0.0 **** 0.06
26829 H 48.22943898007266 144.21852054083627 159.76369954435143 H 0.0 **** 0.06
26830 H 48.79063384446769 145.8751543763063 159.43228291152417 H 0.0 **** 0.06
26831 C 43.904082860170746 93.9260960697191 62.0386045915327 C 0.0 **** -0.24
26832 H 44.39103602690113 93.71182610115945 61.08641217566657 H 0.0 **** 0.06
26833 H 42.82331120088122 93.86238131874647 61.91600201862303 H 0.0 **** 0.06
26834 H 44.17510064200948 94.92950132170576 62.367404884055475 H 0.0 **** 0.06
26835 H 44.229310079887824 93.19907285648786 62.78335682427837 H 0.0 **** 0.06
26836 C 107.01812696066482 15.00622413320059 125.82423658629125 C 0.0 **** -0.24
26837 H 107.13039327502544 15.903836431169736 125.21626307001401 H 0.0 **** 0.06
26838 H 106.1930708725909 15.142016213653733 126.52374307993097 H 0.0 **** 0.06
26839 H 107.93922395956345 14.826525679585131 126.37942589497544 H 0.0 **** 0.06
26840 H 106.81065496322078 14.153109452458864 125.17849045315569 H 0.0 **** 0.06
26841 C 66.65717759652473 110.52269249782432 119.28150323544442 C 0.0 **** -0.24
26842 H 66.12833967804177 109.58993178582347 119.47660645253735 H 0.0 **** 0.06
26843 H 65.94460261929108 111.28193129360807 118.9582266802271 H 0.0 **** 0.06
26844 H 67.39901786095275 110.36360470571145 118.49893601255239 H 0.0 **** 0.06
26845 H 67.15504315048699 110.85505190074934 120.19239646718604 H 0.0 **** 0.06
26846 C 101.87866436159466 103.37454259408428 62.55240191151084 C 0.0 **** -0.24
26847 H 102.92004527679693 103.56529855350867 62.29224748140902 H 0.0 **** 0.06
26848 H 101.54305718628338 104.11701925065468 63.276136387336706 H 0.0 **** 0.06
26849 H 101.78837316216784 102.37811307889955 62.98383563817008 H 0.0 **** 0.06
26850 H 101.26339595291849 103.4385357011045 61.65387807901959 H 0.0 **** 0.06
26851 C 154.43583988515735 45.088688581306144 164.6374570171127 C 0.0 **** -0.24
26852 H 154.47124695387456 45.15061129264302 163.5498659742198 H 0.0 **** 0.06
26853 H 153.41087251997948 44.903756256054976 164.9575011952949 H 0.0 **** 0.06
26854 H 154.78791525582534 46.027433167724894 165.065273451005 H 0.0 **** 0.06
26855 H 155.0757174109025 44.27348216940595 164.97545646220306 H 0.0 **** 0.06
26856 C 179.50975093475367 117.23760611456198 37.731492631465244 C 0.0 **** -0.24
26857 H 178.91697242049065 116.46871457629284 38.22784111730675 H 0.0 **** 0.06
26858 H 180.56707348678722 117.06865150512623 37.937802464785364 H 0.0 **** 0.06
26859 H 179.21867998715584 118.21885799944296 38.10497995334708 H 0.0 **** 0.06
26860 H 179.33687972365703 117.19177752136123 36.65667654221903 H 0.0 **** 0.06
26861 C 106.98044312927841 115.05657940343777 179.74888770965808 C 0.0 **** -0.24
26862 H 107.55596356399836 115.81737064205636 180.2764228166215 H 0.0 **** 0.06
26863 H 106.28874620201465 115.53864854872758 179.05815255097082 H 0.0 **** 0.06
26864 H 106.42021524961847 114.46031355269655 180.46892251075937 H 0.0 **** 0.06
26865 H 107.65901833278072 114.4095175854571 179.19178978742445 H 0.0 **** 0.06
26866 C 51.49076376502154 118.36002514370442 136.86216637253557 C 0.0 **** -0.24
26867 H 51.469877024752975 117.4948031904406 137.5257514166213 H 0.0 **** 0.06
26868 H 51.55453165260275 118.02216144324665 135.8279975612241 H 0.0 **** 0.06
26869 H 52.35806677848839 118.97642994157685 137.09813663552984 H 0.0 **** 0.06
26870 H 50.581319099748725 118.94457065825274 136.9992075785176 H 0.0 **** 0.06
26871 C 105.5531978509408 43.95471161486712 105.61429286756679 C 0.0 **** -0.24
26872 H 106.57647027569989 44.33027305418754 105.64441821297022 H 0.0 **** 0.06
26873 H 105.33780730426263 43.41806239074667 106.53860499104083 H 0.0 **** 0.06
26874 H 105.43895264179328 43.28005345217781 104.76666044476563 H 0.0 **** 0.06
26875 H 104.86278610177443 44.791235001785395 105.50921866707664 H 0.0 **** 0.06
26876 C 87.23498845590878 85.8246679435422 174.03907811243792 C 0.0 **** -0.24
26877 H 87.76394988592322 86.33231776998504 173.23239240774416 H 0.0 **** 0.06
26878 H 87.63000965173175 84.81458752596535 174.15230882113352 H 0.0 **** 0.06
26879 H 86.17259217186474 85.77458180612864 173.8018654189533 H 0.0 **** 0.06
26880 H 87.37428383789107 86.37574587429943 174.96867224569857 H 0.0 **** 0.06
26881 C 154.6356727998758 154.4208924476922 26.130789188608333 C 0.0 **** -0.24
26882 H 154.86963572883707 155.38203042818432 26.59079412733678 H 0.0 **** 0.06
26883 H 153.61543758237985 154.44122319390115 25.745612393711326 H 0.0 **** 0.06
26884 H 154.72700163154087 153.63104467860424 26.87665373367389 H 0.0 **** 0.06
26885 H 155.3302183825008 154.23095123143605 25.312550147504624 H 0.0 **** 0.06
26886 C 140.55742953329639 135.63679085856626 65.76295921162702 C 0.0 **** -0.24
26887 H 139.65680746811273 135.75673285342998 65.1606941703529 H 0.0 **** 0.06
26888 H 141.40207072698365 135.4085996359517 65.11196273518456 H 0.0 **** 0.06
26889 H 140.4141344202323 134.8212109713449 66.47173725909362 H 0.0 **** 0.06
26890 H 140.7573566856031 136.55998579692715 66.3063592382826 H 0.0 **** 0.06
26891 C 166.6665852765354 159.79290803424593 22.567987019711097 C 0.0 **** -0.24
26892 H 165.62904012387716 159.5539675783613 22.33565565114715 H 0.0 **** 0.06
26893 H 167.27032399659421 158.88726661763147 22.50752586213106 H 0.0 **** 0.06
26894 H 166.7272111683477 160.20501812387238 23.574931964748515 H 0.0 **** 0.06
26895 H 167.03831782806517 160.52690245758652 21.852575616541742 H 0.0 **** 0.06
26896 C 93.02411157877083 184.7570137095987 179.74021655240466 C 0.0 **** -0.24
26897 H 92.71490239118174 185.58761688176185 180.3743990198164 H 0.0 **** 0.06
26898 H 93.43616779843876 183.96069232840657 180.35953333509644 H 0.0 **** 0.06
26899 H 93.78276550038368 185.100128595864 179.03616627953573 H 0.0 **** 0.06
26900 H 92.1620547151669 184.38008485159682 179.18955424967245 H 0.0 **** 0.06
26901 C 39.044933781251245 170.70763643702702 7.9388343700422865 C 0.0 **** -0.24
26902 H 38.12722312517923 171.08501720754847 8.390531483465224 H 0.0 **** 0.06
26903 H 39.78418852524493 171.50809293801697 7.894991438603171 H 0.0 **** 0.06
26904 H 38.83330894692847 170.35213524776435 6.930687960585715 H 0.0 **** 0.06
26905 H 39.434627673549016 169.88674799410222 8.54078635890346 H 0.0 **** 0.06
26906 C 143.09486837398373 139.1230516246515 158.3051452628041 C 0.0 **** -0.24
26907 H 142.60191576978048 139.0870468112999 159.2765132366047 H 0.0 **** 0.06
26908 H 143.46311008304093 140.13306831135014 158.12207498148086 H 0.0 **** 0.06
26909 H 142.382839756036 138.848848466883 157.52612969053897 H 0.0 **** 0.06
26910 H 143.93061390259004 138.42334256535293 158.2958174459938 H 0.0 **** 0.06
26911 C 49.53071345507999 62.406908900535555 8.16462268247004 C 0.0 **** -0.24
26912 H 50.16391305283463 61.89111146125566 8.886186001172355 H 0.0 **** 0.06
26913 H 48.96787488266125 61.67387302668871 7.586184675825876 H 0.0 **** 0.06
26914 H 50.152887374014654 62.99991872333955 7.4940077875033495 H 0.0 **** 0.06
26915 H 48.838362999822664 63.06290178699683 8.69308040455629 H 0.0 **** 0.06
26916 C 152.54730716255685 121.95364608190346 117.51632961769401 C 0.0 **** -0.24
26917 H 153.20847799153867 121.66307697781451 116.69920837662788 H 0.0 **** 0.06
26918 H 151.98610259823778 121.08271078040377 117.85582706468476 H 0.0 **** 0.06
26919 H 151.8546146613328 122.71907507557074 117.16715214714192 H 0.0 **** 0.06
26920 H 153.13989154558018 122.34870888790181 118.34031046936325 H 0.0 **** 0.06
26921 C 2.632716727045228 116.6599100356831 63.35154723629795 C 0.0 **** -0.24
26922 H 2.896449023747522 116.68230319719255 64.40797145764449 H 0.0 **** 0.06
26923 H 2.6361222519355465 117.6749040510207 62.95436980580199 H 0.0 **** 0.06
26924 H 1.639423889416065 116.22666894643574 63.233861797900914 H 0.0 **** 0.06
26925 H 3.3591343991749625 116.05507665713695 62.808778120473036 H 0.0 **** 0.06
26926 C 164.46990448941483 90.79423244520592 155.8068577817385 C 0.0 **** -0.24
26927 H 163.6674070737822 90.14744668773147 155.45410657753527 H 0.0 **** 0.06
26928 H 165.39942914483402 90.22619359862648 155.85706907763372 H 0.0 **** 0.06
26929 H 164.22123071801667 91.17234989336231 156.79870652309924 H 0.0 **** 0.06
26930 H 164.5915981491762 91.6308137137047 155.11895677705976 H 0.0 **** 0.06
26931 C 43.568653466929106 23.282807083982277 82.12603148659828 C 0.0 **** -0.24
26932 H 43.43603490031107 23.387341006159716 83.20261744440162 H 0.0 **** 0.06
26933 H 43.687344408815875 22.22783040664021 81.87586539783221 H 0.0 **** 0.06
26934 H 44.45628706980692 23.83267736936031 81.81317749481725 H 0.0 **** 0.06
26935 H 42.69406074404991 23.682495230576336 81.61126905996338 H 0.0 **** 0.06
26936 C 149.92802371881214 38.26228519862025 37.631429645878114 C 0.0 **** -0.24
26937 H 150.2274626131212 39.038537340289054 36.92691610028396 H 0.0 **** 0.06
26938 H 149.59612388079216 37.38144300350916 37.0816225036462 H 0.0 **** 0.06
26939 H 149.11142021419258 38.63187381249634 38.253160602585865 H 0.0 **** 0.06
26940 H 150.77544608656314 37.99909383692136 38.26382507724628 H 0.0 **** 0.06
26941 C 159.68038918583173 5.598681870001798 112.29111017824825 C 0.0 **** -0.24
26942 H 159.47886553215093 6.56915857840778 112.74426636643635 H 0.0 **** 0.06
26943 H 160.6076698576405 5.6508284140659555 111.71938061804978 H 0.0 **** 0.06
26944 H 158.85909906427722 5.330456900087881 111.62663048530281 H 0.0 **** 0.06
26945 H 159.777177173638 4.844887090443933 113.07313313472925 H 0.0 **** 0.06
26946 C 7.790325445560427 82.46462352464964 90.31890595259178 C 0.0 **** -0.24
26947 H 8.22633018328932 83.34990976928829 89.85645759138892 H 0.0 **** 0.06
26948 H 7.9790936125986605 81.59532756222916 89.68878336252438 H 0.0 **** 0.06
26949 H 6.715342929107578 82.60591063326439 90.43133329642087 H 0.0 **** 0.06
26950 H 8.241043954829252 82.30798024222355 91.29963175801758 H 0.0 **** 0.06
26951 C 165.0001338693262 164.11627174232262 10.565115872540986 C 0.0 **** -0.24
26952 H 164.68485600699864 163.39704809339705 9.809827482665526 H 0.0 **** 0.06
26953 H 165.75298950678055 164.7807943804654 10.14161096491577 H 0.0 **** 0.06
26954 H 165.42093337195175 163.58585150089516 11.419037120006124 H 0.0 **** 0.06
26955 H 164.13962323456155 164.70203087790614 10.890192901197736 H 0.0 **** 0.06
26956 C 77.13800222980223 87.07885471363748 51.651525235571015 C 0.0 **** -0.24
26957 H 77.77264624917352 87.96237428810885 51.58847386786398 H 0.0 **** 0.06
26958 H 76.21848090753178 87.3286218532384 52.18187446350014 H 0.0 **** 0.06
26959 H 77.6644804328531 86.2904421964961 52.190516698392614 H 0.0 **** 0.06
26960 H 76.89574518297508 86.73209593320196 50.64665646342209 H 0.0 **** 0.06
26961 C 35.07822911367907 9.695043522013094 16.62687143709335 C 0.0 **** -0.24
26962 H 34.72754252506297 9.843986948097857 15.606202486524765 H 0.0 **** 0.06
26963 H 35.909157267015814 10.372022961569975 16.827970000878224 H 0.0 **** 0.06
26964 H 35.411292914466344 8.664132119163334 16.750263365099606 H 0.0 **** 0.06
26965 H 34.266409593468666 9.90046942071563 17.324662689177387 H 0.0 **** 0.06
26966 C 85.77999287882098 174.6568333457114 133.69465564037608 C 0.0 **** -0.24
26967 H 85.29758997977076 174.07783975207545 134.48231815127372 H 0.0 **** 0.06
26968 H 85.54197048246884 175.71283588328674 133.82257492785067 H 0.0 **** 0.06
26969 H 85.41896132480626 174.31767598685377 132.72282905678225 H 0.0 **** 0.06
26970 H 86.85946512373577 174.51659729281212 133.75028731439454 H 0.0 **** 0.06
26971 C 85.27681186945752 36.8075319445915 121.39111437308323 C 0.0 **** -0.24
26972 H 84.42419148247959 36.23933961371594 121.76418720236212 H 0.0 **** 0.06
26973 H 84.96665197023746 37.40427125393575 120.53195579932652 H 0.0 **** 0.06
26974 H 86.06700811707678 36.121007655471274 121.09050232363465 H 0.0 **** 0.06
26975 H 85.64580930677162 37.46627022665919 122.17706546768513 H 0.0 **** 0.06
26976 C 159.9898836963593 28.402128224164244 169.8030182157762 C 0.0 **** -0.24
26977 H 160.06617439237985 28.38499048920295 170.89039689910413 H 0.0 **** 0.06
26978 H 160.4802727195266 27.52032179042442 169.39015093321802 H 0.0 **** 0.06
26979 H 160.47388996493567 29.300768867565864 169.41981291427223 H 0.0 **** 0.06
26980 H 158.93907415940734 28.403822737319757 169.51372458680166 H 0.0 **** 0.06
26981 C 155.22492345047596 92.3789530479457 97.03202720502918 C 0.0 **** -0.24
26982 H 155.90335967756067 93.17822469688117 96.73603489751076 H 0.0 **** 0.06
26983 H 155.7103963017916 91.41464441684595 96.87573457945092 H 0.0 **** 0.06
26984 H 154.31747899304446 92.4309979792255 96.43146645558738 H 0.0 **** 0.06
26985 H 154.96978292048829 92.49049324109232 98.08594013437977 H 0.0 **** 0.06
26986 C 151.25743146599382 88.02584417175031 29.58675401861302 C 0.0 **** -0.24
26987 H 151.08059006892296 87.4179536643589 28.698752529098698 H 0.0 **** 0.06
26988 H 152.276446172603 88.41214252870405 29.565098304274514 H 0.0 **** 0.06
26989 H 151.1187943503299 87.41407880874594 30.478509180581227 H 0.0 **** 0.06
26990 H 150.55327152675545 88.85734841345119 29.60357141809139 H 0.0 **** 0.06
26991 C 37.772612666251405 8.934580455836567 102.29085770338446 C 0.0 **** -0.24
26992 H 36.8288613761398 9.27878494415441 102.71346996896153 H 0.0 **** 0.06
26993 H 38.50910107981042 9.736260679397873 102.3461026167966 H 0.0 **** 0.06
26994 H 37.62266405077884 8.649197326532345 101.2504836355281 H 0.0 **** 0.06
26995 H 38.13023941243665 8.072694006540331 102.85618705652644 H 0.0 **** 0.06
26996 C 34.150055241948635 43.88235768898767 85.57019096286331 C 0.0 **** -0.24
26997 H 35.13314975628282 43.59401301267715 85.19835110308281 H 0.0 **** 0.06
26998 H 33.49482863351322 43.01041303544628 85.5777417669666 H 0.0 **** 0.06
26999 H 33.72753203888135 44.64858976917577 84.92161493759204 H 0.0 **** 0.06
27000 H 34.245524897418605 44.27422313043073 86.58232601259976 H 0.0 **** 0.06
27001 C 9.256505983001773 63.29979142398797 13.634796897740834 C 0.0 **** -0.24
27002 H 8.408392785634703 63.477547489985554 12.972768065134481 H 0.0 **** 0.06
27003 H 9.539004744829526 64.23337314465181 14.12082053009484 H 0.0 **** 0.06
27004 H 10.098020946347134 62.922045957501936 13.054920818429721 H 0.0 **** 0.06
27005 H 8.97744524797551 62.565483985272536 14.39138667406774 H 0.0 **** 0.06
27006 C 23.379495784103128 2.0527620886405984 37.31284974470515 C 0.0 **** -0.24
27007 H 22.50776006975822 2.7080494593791684 37.29974616623139 H 0.0 **** 0.06
27008 H 23.295500024074613 1.3537442938090294 38.14463408231592 H 0.0 **** 0.06
27009 H 24.28159715028862 2.6530355784410276 37.431703559261535 H 0.0 **** 0.06
27010 H 23.431689618340314 1.499670908304445 36.37546332813088 H 0.0 **** 0.06
27011 C 123.13536686867958 148.87155398887847 30.204704621396672 C 0.0 **** -0.24
27012 H 123.50898451562155 149.6060682964831 29.491174697628537 H 0.0 **** 0.06
27013 H 122.19417955064644 149.2240168495261 30.628345699297142 H 0.0 **** 0.06
27014 H 123.86538193978807 148.73714479533504 31.002874106460638 H 0.0 **** 0.06
27015 H 122.97284788983394 147.9221148160499 29.695970736019774 H 0.0 **** 0.06
27016 C 14.763805373749676 59.69944654406116 129.8156990051388 C 0.0 **** -0.24
27017 H 15.50989040348071 59.962017582638865 130.56639732460388 H 0.0 **** 0.06
27018 H 14.154619159484213 58.8738884589208 130.18245961443313 H 0.0 **** 0.06
27019 H 15.265813448090114 59.39970302011653 128.89561635450747 H 0.0 **** 0.06
27020 H 14.128393245746082 60.562583310332755 129.61911137537396 H 0.0 **** 0.06
27021 C 35.45730238779768 134.14141052519898 111.3565252554151 C 0.0 **** -0.24
27022 H 35.488521214926095 134.92765796594318 112.11217051664879 H 0.0 **** 0.06
27023 H 35.79184810161753 133.20171694950938 111.79732968013171 H 0.0 **** 0.06
27024 H 36.11208723454487 134.4089443264532 110.5281045919141 H 0.0 **** 0.06
27025 H 34.43684556201042 134.0302988960227 110.99197978780178 H 0.0 **** 0.06
27026 C 87.63771023903053 156.94265980646577 183.83588514575683 C 0.0 **** -0.24
27027 H 87.44146828953876 158.0089831222569 183.95113298686474 H 0.0 **** 0.06
27028 H 88.70904017153487 156.78257645964317 183.7117848731814 H 0.0 **** 0.06
27029 H 87.10961002191408 156.57007743421934 182.95831640589716 H 0.0 **** 0.06
27030 H 87.2909160360328 156.41144065545473 184.72243540700964 H 0.0 **** 0.06
27031 C 181.1344800669861 16.80938320779898 80.59043224155073 C 0.0 **** -0.24
27032 H 181.47877836460336 16.34913081522123 79.66364326314488 H 0.0 **** 0.06
27033 H 181.82041541165165 16.553155576507912 81.39848081177797 H 0.0 **** 0.06
27034 H 180.13723639964826 16.44283125770732 80.82935491860309 H 0.0 **** 0.06
27035 H 181.10545116915546 17.892200805579655 80.46874519501296 H 0.0 **** 0.06
27036 C 74.32285530866417 95.85338639994801 50.26160988496713 C 0.0 **** -0.24
27037 H 73.3010097016115 95.5438923640656 50.0444893298195 H 0.0 **** 0.06
27038 H 74.40925589470275 96.93329119903622 50.139017302192144 H 0.0 **** 0.06
27039 H 75.00697639749049 95.35313466806237 49.57766993657299 H 0.0 **** 0.06
27040 H 74.57321633045764 95.58302514118621 51.288268325636636 H 0.0 **** 0.06
27041 C 35.74950489674394 124.41177985175335 160.2517875341909 C 0.0 **** -0.24
27042 H 36.27955046695111 123.51431689734062 160.5717536552123 H 0.0 **** 0.06
27043 H 36.1661137835716 124.7630252102631 159.30801950908878 H 0.0 **** 0.06
27044 H 35.85899756346177 125.18768182778854 161.009662754655 H 0.0 **** 0.06
27045 H 34.69200093242691 124.18100625221535 160.11943837935996 H 0.0 **** 0.06
27046 C 72.92609736284791 140.60723215244025 100.1629070908442 C 0.0 **** -0.24
27047 H 71.8447247041104 140.56111198210522 100.29397760684729 H 0.0 **** 0.06
27048 H 73.40344097403408 139.89060749599815 100.83158306063113 H 0.0 **** 0.06
27049 H 73.27764825376546 141.61222277649318 100.395454224267 H 0.0 **** 0.06
27050 H 73.17667973041475 140.3638994368563 99.1301394294601 H 0.0 **** 0.06
27051 C 11.519242964506304 158.0057883750847 82.84771057818627 C 0.0 **** -0.24
27052 H 11.849694448978397 157.60989086596695 83.80787063538453 H 0.0 **** 0.06
27053 H 12.10998393198858 158.88716032399446 82.59604416092773 H 0.0 **** 0.06
27054 H 10.46644696403365 158.28004869296652 82.91068048633673 H 0.0 **** 0.06
27055 H 11.651693208707542 157.24705759117586 82.07677161805795 H 0.0 **** 0.06
27056 C 60.36597247430058 137.60603990964438 142.15408019244626 C 0.0 **** -0.24
27057 H 60.01398934013562 136.72411988299052 141.619978821603 H 0.0 **** 0.06
27058 H 59.64585338456925 138.41550636482134 142.03333697401627 H 0.0 **** 0.06
27059 H 61.33027345171047 137.9147665353771 141.7506959414639 H 0.0 **** 0.06
27060 H 60.47437793965457 137.37015266120562 143.21352809909138 H 0.0 **** 0.06
27061 C 118.40516417179815 46.189772463607056 166.3656852853965 C 0.0 **** -0.24
27062 H 117.58660592985781 46.502136103061446 165.7176669904852 H 0.0 **** 0.06
27063 H 118.37394233634215 45.10820857088589 166.49438294196446 H 0.0 **** 0.06
27064 H 118.30612643316512 46.67478158628788 167.33678622757725 H 0.0 **** 0.06
27065 H 119.35558632744126 46.47460845213271 165.9124871041965 H 0.0 **** 0.06
27066 C 71.023664388154 126.83337650200473 103.0285786864061 C 0.0 **** -0.24
27067 H 71.02805343604597 127.62465657898984 103.77876263681215 H 0.0 **** 0.06
27068 H 70.38353054216336 127.12615521786994 102.1966678542034 H 0.0 **** 0.06
27069 H 70.64467181038752 125.91413182370464 103.47359573736973 H 0.0 **** 0.06
27070 H 72.0393802832355 126.67100179268614 102.66731140480955 H 0.0 **** 0.06
27071 C 180.1769243107638 69.0738505233786 72.85702089254659 C 0.0 **** -0.24
27072 H 181.21201289371436 68.74979006300389 72.74449164738365 H 0.0 **** 0.06
27073 H 180.1415524118122 69.96100806855357 73.49038549161241 H 0.0 **** 0.06
27074 H 179.59474189049484 68.27520453782651 73.31708783409101 H 0.0 **** 0.06
27075 H 179.76035962454563 69.30855898335373 71.87728206299653 H 0.0 **** 0.06
27076 C 132.18593448087887 130.6352642541782 173.7570884003933 C 0.0 **** -0.24
27077 H 132.3045390963951 130.56322886055017 172.67631358971676 H 0.0 **** 0.06
27078 H 132.0573783748141 129.63699587665354 174.1752653165476 H 0.0 **** 0.06
27079 H 131.3100507499692 131.2412431502163 173.98642571295835 H 0.0 **** 0.06
27080 H 133.0728843878219 131.09976567347144 174.18869779875013 H 0.0 **** 0.06
27081 C 161.18481271114683 73.96817016527908 65.65776298729372 C 0.0 **** -0.24
27082 H 161.43881874124372 74.56588895805487 64.78330744007565 H 0.0 **** 0.06
27083 H 162.08943380236798 73.75671486993174 66.2288625669886 H 0.0 **** 0.06
27084 H 160.73010490231013 73.03088371689253 65.33664261667104 H 0.0 **** 0.06
27085 H 160.48070181131772 74.517872227871 66.28270686970728 H 0.0 **** 0.06
27086 C 18.95930673248401 161.63310403504323 52.30855370125593 C 0.0 **** -0.24
27087 H 18.85555211183827 161.01176814750698 51.41864804731115 H 0.0 **** 0.06
27088 H 19.15631815200984 162.66313893879567 52.01139556067767 H 0.0 **** 0.06
27089 H 19.787241145164607 161.26539767592004 52.914665080296885 H 0.0 **** 0.06
27090 H 18.037057601076476 161.59125169645392 52.88912954967546 H 0.0 **** 0.06
27091 C 131.27133795692288 162.40768543575786 35.77811466211439 C 0.0 **** -0.24
27092 H 131.1861407012164 161.82538045438434 34.8617268347524 H 0.0 **** 0.06
27093 H 131.1505240954143 161.74986709942237 36.639079482717776 H 0.0 **** 0.06
27094 H 130.49722333136265 163.1747514852122 35.794954530675085 H 0.0 **** 0.06
27095 H 132.25244620693388 162.88144828754196 35.817430521844955 H 0.0 **** 0.06
27096 C 17.043078854375437 33.19578232223813 160.41868227500458 C 0.0 **** -0.24
27097 H 16.07514957285281 32.81983992638715 160.75186782710838 H 0.0 **** 0.06
27098 H 17.33740577244353 34.04155505170394 161.0402178915831 H 0.0 **** 0.06
27099 H 16.96943963122078 33.51596682192206 159.37935628422042 H 0.0 **** 0.06
27100 H 17.788200654814403 32.40507507914222 160.50345201781607 H 0.0 **** 0.06
27101 C 65.99287067454361 184.69638505766505 58.779758161917684 C 0.0 **** -0.24
27102 H 65.55039064959965 183.7717079404233 59.15008101561624 H 0.0 **** 0.06
27103 H 66.20141454739502 184.59905930170507 57.71437911626866 H 0.0 **** 0.06
27104 H 66.92123292618311 184.89473904169722 59.315999344705844 H 0.0 **** 0.06
27105 H 65.29780306790093 185.52064061748243 58.94085802723758 H 0.0 **** 0.06
27106 C 12.251417054754313 70.97924372211781 134.98277623178 C 0.0 **** -0.24
27107 H 12.493381442705328 70.8176926471013 133.93192045236015 H 0.0 **** 0.06
27108 H 11.668987317069508 70.13586672538537 135.35508420978005 H 0.0 **** 0.06
27109 H 11.670309136898453 71.89623046363482 135.08460101810266 H 0.0 **** 0.06
27110 H 13.173356000835668 71.0678420614064 135.55830147070003 H 0.0 **** 0.06
27111 C 143.3838685011246 14.066505283484297 102.32252423291214 C 0.0 **** -0.24
27112 H 142.6376086076247 14.83518809076444 102.12489264368247 H 0.0 **** 0.06
27113 H 144.29836061528977 14.533375745012258 102.68788227622389 H 0.0 **** 0.06
27114 H 143.59609446693185 13.521199771882316 101.40254520167218 H 0.0 **** 0.06
27115 H 143.0030016727622 13.374928819798946 103.07451680943939 H 0.0 **** 0.06
27116 C 172.94763655478297 87.54701116651773 50.07615506170794 C 0.0 **** -0.24
27117 H 172.84995995177113 88.23074838719384 50.91992107143244 H 0.0 **** 0.06
27118 H 172.52305230876618 86.57889702442725 50.34259379600405 H 0.0 **** 0.06
27119 H 174.00204779158747 87.42626295175552 49.82773973439225 H 0.0 **** 0.06
27120 H 172.41586544062585 87.95278785736707 49.2155621722535 H 0.0 **** 0.06
27121 C 145.4481916642863 40.0133876042826 134.58502382725237 C 0.0 **** -0.24
27122 H 144.71628754023632 40.605616883343146 135.1347193878717 H 0.0 **** 0.06
27123 H 146.4444874524398 40.202461081555214 134.98730897172135 H 0.0 **** 0.06
27124 H 145.4225975185446 40.29052753263096 133.53178514100767 H 0.0 **** 0.06
27125 H 145.20967175699616 38.95413890900301 134.68809105628242 H 0.0 **** 0.06
27126 C 155.37416911298766 143.65475217525673 18.702562914608144 C 0.0 **** -0.24
27127 H 154.4277632768974 143.80910041095285 19.22079546669324 H 0.0 **** 0.06
27128 H 155.4174780148192 144.30377221228517 17.827629370635968 H 0.0 **** 0.06
27129 H 155.4501963077608 142.613649265042 18.38650438290889 H 0.0 **** 0.06
27130 H 156.1998536903613 143.89207634916124 19.372693166812113 H 0.0 **** 0.06
27131 C 84.86821173608661 106.39421877562766 159.49816806311313 C 0.0 **** -0.24
27132 H 83.9467091462094 105.83801225779759 159.67268932700267 H 0.0 **** 0.06
27133 H 85.4578431286551 105.88832813112855 158.73361601084468 H 0.0 **** 0.06
27134 H 85.44079967945072 106.44780101618078 160.42354113796898 H 0.0 **** 0.06
27135 H 84.62483820231171 107.40249298559804 159.16188570506486 H 0.0 **** 0.06
27136 C 22.38539612601869 165.38346089603482 38.64875418340273 C 0.0 **** -0.24
27137 H 23.091363282021803 165.2800106758146 39.47234617725502 H 0.0 **** 0.06
27138 H 22.92745823358419 165.62556592924966 37.734167824586905 H 0.0 **** 0.06
27139 H 21.678048039762018 166.18113519903665 38.87417321108933 H 0.0 **** 0.06
27140 H 21.844922044550373 164.4461644931605 38.51447612259818 H 0.0 **** 0.06
27141 C 86.05547205404417 110.38566468661729 86.69034027387086 C 0.0 **** -0.24
27142 H 86.4284024578161 110.62184155513104 85.69413811390918 H 0.0 **** 0.06
27143 H 86.72322379856683 109.66779482726936 87.1670150524234 H 0.0 **** 0.06
27144 H 85.05604741604066 109.95607283311519 86.61160252841385 H 0.0 **** 0.06
27145 H 86.01323367360169 111.29685679931437 87.28759083481036 H 0.0 **** 0.06
27146 C 62.791593139015504 26.798196042803454 15.143028314208749 C 0.0 **** -0.24
27147 H 63.266443084725964 26.56642138816025 16.09693419392549 H 0.0 **** 0.06
27148 H 63.38753176288148 27.54047611743961 14.61216410691658 H 0.0 **** 0.06
27149 H 61.79221334094784 27.194324741757526 15.322417361472816 H 0.0 **** 0.06
27150 H 62.72148855124232 25.890694403138184 14.543156253352883 H 0.0 **** 0.06
27151 C 99.91911979659942 20.481923283147978 45.26412265231744 C 0.0 **** -0.24
27152 H 98.95274074277317 20.98697808108915 45.27976126128537 H 0.0 **** 0.06
27153 H 100.08419099361235 19.98469227384038 46.220248271885424 H 0.0 **** 0.06
27154 H 100.70824569666782 21.214143931492373 45.09258663895565 H 0.0 **** 0.06
27155 H 99.92904198005739 19.74276386933576 44.46244173056316 H 0.0 **** 0.06
27156 C 56.974791508784904 39.03957782944991 147.67906813719856 C 0.0 **** -0.24
27157 H 58.0479818254139 38.85791044738903 147.61812653795442 H 0.0 **** 0.06
27158 H 56.55445681088898 39.076623283086974 146.67370762640417 H 0.0 **** 0.06
27159 H 56.79542081179676 39.98997122498247 148.182080978434 H 0.0 **** 0.06
27160 H 56.5012374190577 38.23516119834599 148.24195780042095 H 0.0 **** 0.06
27161 C 166.55490690906788 68.53100019721742 8.234758778091077 C 0.0 **** -0.24
27162 H 166.0217240171402 68.30458543081951 9.158734832776588 H 0.0 **** 0.06
27163 H 165.8576363639151 68.50164279085953 7.397212777332243 H 0.0 **** 0.06
27164 H 167.3416481569822 67.79283937291365 8.079684072518148 H 0.0 **** 0.06
27165 H 166.99739887558627 69.52473549799979 8.305266785969138 H 0.0 **** 0.06
27166 C 25.763841056835304 54.69478914239852 40.61822428799226 C 0.0 **** -0.24
27167 H 26.43126074417154 54.1265684412067 41.26571061647874 H 0.0 **** 0.06
27168 H 26.000346856696012 55.75560963525453 40.69429810803075 H 0.0 **** 0.06
27169 H 24.731147466758443 54.52874335029395 40.925806992832634 H 0.0 **** 0.06
27170 H 25.893140175720134 54.36634276200118 39.58671127840711 H 0.0 **** 0.06
27171 C 100.07674689499329 75.87707224672029 33.65462752237539 C 0.0 **** -0.24
27172 H 100.15145638893664 76.84205258168747 33.15385432617728 H 0.0 **** 0.06
27173 H 101.07406460933471 75.45736934541836 33.78483583914249 H 0.0 **** 0.06
27174 H 99.47369711541855 75.19971687404922 33.0488015899918 H 0.0 **** 0.06
27175 H 99.60659779376202 76.00889466319414 34.62913100398225 H 0.0 **** 0.06
27176 C 19.18752104734949 175.0640187288226 48.460269068128795 C 0.0 **** -0.24
27177 H 20.09598708029074 175.60917346757614 48.71457030303755 H 0.0 **** 0.06
27178 H 19.324317051376767 174.55714437704515 47.503791851009396 H 0.0 **** 0.06
27179 H 18.353001916892765 175.7620753772662 48.38579673707369 H 0.0 **** 0.06
27180 H 18.9772228528833 174.3269823725011 49.235396442336864 H 0.0 **** 0.06
27181 C 83.92126728684866 183.22739599608775 100.48127048415085 C 0.0 **** -0.24
27182 H 84.10579881771889 183.71433872418487 99.52425312233123 H 0.0 **** 0.06
27183 H 84.55685532034204 183.67592226244693 101.24533751272605 H 0.0 **** 0.06
27184 H 84.14743160934 182.16391923810318 100.39804626086584 H 0.0 **** 0.06
27185 H 82.87513708345062 183.35544380838883 100.75843236140099 H 0.0 **** 0.06
27186 C 124.17353802567938 86.20725340254951 16.054069973784692 C 0.0 **** -0.24
27187 H 123.9880523851236 85.21999478755903 15.631924445013894 H 0.0 **** 0.06
27188 H 124.38648881704289 86.91134950655619 15.249983542523616 H 0.0 **** 0.06
27189 H 125.02779071164731 86.15824693958452 16.72986587255631 H 0.0 **** 0.06
27190 H 123.29379572072212 86.53839261652924 16.60469836813259 H 0.0 **** 0.06
27191 C 44.886221303402166 8.016777270640759 86.92256962676645 C 0.0 **** -0.24
27192 H 45.50389101270005 7.890752320771519 86.03376301816816 H 0.0 **** 0.06
27193 H 43.84051141292568 7.844519812393983 86.66552180093647 H 0.0 **** 0.06
27194 H 45.00318503426483 9.029661599991584 87.30694465962422 H 0.0 **** 0.06
27195 H 45.19541327288445 7.301176457919908 87.68472064680158 H 0.0 **** 0.06
27196 C 182.60565971987756 101.97559436975182 134.06060626332504 C 0.0 **** -0.24
27197 H 183.5492737579886 102.37264131554919 134.43682118852433 H 0.0 **** 0.06
27198 H 182.1031207739009 102.73736906194652 133.46523304433805 H 0.0 **** 0.06
27199 H 181.97113917736954 101.69232643379961 134.90068562438995 H 0.0 **** 0.06
27200 H 182.80133193840538 101.09984683291636 133.4416862343021 H 0.0 **** 0.06
27201 C 75.41545488255281 3.6677808927793194 99.28155093720535 C 0.0 **** -0.24
27202 H 74.59602141255914 3.0937075330167545 99.71373020773864 H 0.0 **** 0.06
27203 H 75.24459907201867 4.730213339693648 99.45604437087913 H 0.0 **** 0.06
27204 H 75.4651877593733 3.479209493595306 98.20964664826938 H 0.0 **** 0.06
27205 H 76.35332667271604 3.3681676258512994 99.74844465146292 H 0.0 **** 0.06
27206 C 18.306316993732082 128.53940324946285 0.42564982609479785 C 0.0 **** -0.24
27207 H 18.721017402889572 127.63565597633821 0.8732208525784699 H 0.0 **** 0.06
27208 H 18.27319948889948 129.3326659203637 1.1737948508187515 H 0.0 **** 0.06
27209 H 17.297909211330705 128.33681745607652 0.0659414934989968 H 0.0 **** 0.06
27210 H 18.93381716769477 128.8522467594746 -0.4080142528943611 H 0.0 **** 0.06
27211 C 17.83838163755746 15.388993240285032 77.40682697811376 C 0.0 **** -0.24
27212 H 18.631246998383574 14.670030549510471 77.6122059515738 H 0.0 **** 0.06
27213 H 18.042538358849697 15.893772891239962 76.4622715724719 H 0.0 **** 0.06
27214 H 17.796589663390222 16.123476910538386 78.21042420592809 H 0.0 **** 0.06
27215 H 16.883718715537043 14.86726427553458 77.34078190270998 H 0.0 **** 0.06
27216 C 138.8885362450685 32.38459626043692 58.25527734575907 C 0.0 **** -0.24
27217 H 138.83495178842202 33.47113189546832 58.32374181419431 H 0.0 **** 0.06
27218 H 138.54953664966314 31.944522503725807 59.19418670052623 H 0.0 **** 0.06
27219 H 139.91892641258875 32.08380525000916 58.06496381164003 H 0.0 **** 0.06
27220 H 138.25204306251305 32.039746916441175 57.44097414804223 H 0.0 **** 0.06
27221 C 148.3155975609402 47.374698309285876 155.64566715007868 C 0.0 **** -0.24
27222 H 148.30656613271645 48.04714701059123 154.7872869517158 H 0.0 **** 0.06
27223 H 149.14495385196543 46.67435032213426 155.5485579644417 H 0.0 **** 0.06
27224 H 147.37563193808384 46.82329432579556 155.68467564670127 H 0.0 **** 0.06
27225 H 148.43440633290766 47.95563067435458 156.5597702095918 H 0.0 **** 0.06
27226 C 82.48244635680798 127.72117565386229 141.31470602710488 C 0.0 **** -0.24
27227 H 81.43526652816718 127.84978174276013 141.589184172935 H 0.0 **** 0.06
27228 H 82.58176546159395 127.76875904158486 140.23040722456267 H 0.0 **** 0.06
27229 H 82.83433385488037 126.7529368887913 141.67027210640367 H 0.0 **** 0.06
27230 H 83.07672975053006 128.5130368150177 141.76929098289708 H 0.0 **** 0.06
27231 C 161.8815011850075 99.29031131509619 43.20389043487825 C 0.0 **** -0.24
27232 H 160.87333698438457 99.08176748766569 43.56175881322514 H 0.0 **** 0.06
27233 H 161.84625561220378 100.09935661926413 42.47294662212997 H 0.0 **** 0.06
27234 H 162.29425824669374 98.39675006677821 42.73802756765696 H 0.0 **** 0.06
27235 H 162.51025171060658 99.58622922849712 44.04431637194955 H 0.0 **** 0.06
27236 C 33.26104808826838 30.20532674019718 72.64163724227582 C 0.0 **** -0.24
27237 H 33.637406376718204 29.654211214600977 73.50262995089567 H 0.0 **** 0.06
27238 H 32.29864295333543 30.652967576082176 72.88815171155683 H 0.0 **** 0.06
27239 H 33.13995544543093 29.524068401637606 71.7989000157498 H 0.0 **** 0.06
27240 H 33.96922056055496 30.989721092336268 72.37407113870464 H 0.0 **** 0.06
27241 C 66.29214411819429 155.1717435173157 1.957508081862251 C 0.0 **** -0.24
27242 H 65.76386724972511 156.06631654503704 2.2850473541515086 H 0.0 **** 0.06
27243 H 65.64542234658548 154.3020724153455 2.077372624432172 H 0.0 **** 0.06
27244 H 67.19213281068285 155.04036132725466 2.5585883157192413 H 0.0 **** 0.06
27245 H 66.56894284721214 155.27683026163606 0.9080974742812771 H 0.0 **** 0.06
27246 C 25.204962723145755 32.07826098362422 100.1595159734767 C 0.0 **** -0.24
27247 H 25.788315278849623 31.20616395809762 100.45245095177599 H 0.0 **** 0.06
27248 H 25.842749506216748 32.96191758380564 100.1686475499627 H 0.0 **** 0.06
27249 H 24.38145477270575 32.21628007057896 100.86105982952891 H 0.0 **** 0.06
27250 H 24.804838081080177 31.927684195877262 99.156793046593 H 0.0 **** 0.06
27251 C 161.47904427998452 184.4557492620937 66.91264350926029 C 0.0 **** -0.24
27252 H 162.0929781649548 184.46046007691953 67.8135554739537 H 0.0 **** 0.06
27253 H 160.5112501249204 184.90892833837802 67.12949042331563 H 0.0 **** 0.06
27254 H 161.33274589056194 183.42843451460953 66.5789796750179 H 0.0 **** 0.06
27255 H 161.9797259124661 185.02374788699817 66.12938059288008 H 0.0 **** 0.06
27256 C 16.102021841244095 137.3088658009907 130.71611309433615 C 0.0 **** -0.24
27257 H 17.120408070151655 137.65129113546976 130.53281623437107 H 0.0 **** 0.06
27258 H 15.957589154516484 137.15515376481324 131.7858566105042 H 0.0 **** 0.06
27259 H 15.935326529011348 136.36941776639452 130.1886394569218 H 0.0 **** 0.06
27260 H 15.3963881778119 138.05709091869858 130.35688943512372 H 0.0 **** 0.06
27261 C 14.666461471214063 164.89253642810075 110.79362759664298 C 0.0 **** -0.24
27262 H 14.54495668000797 165.40609450822856 111.74799915826338 H 0.0 **** 0.06
27263 H 15.692035916656295 164.53239867114317 110.70389325546893 H 0.0 **** 0.06
27264 H 14.450868157531175 165.58431732940863 109.97948444880143 H 0.0 **** 0.06
27265 H 13.979344608011303 164.0483183515097 110.74491829008895 H 0.0 **** 0.06
27266 C 66.74092970576734 43.30379703174344 132.33769578174622 C 0.0 **** -0.24
27267 H 67.3853031766954 44.111122436106044 132.68388626897826 H 0.0 **** 0.06
27268 H 66.32381604988404 43.563239488486616 131.36433192968946 H 0.0 **** 0.06
27269 H 65.93146282947987 43.15198228580674 133.051828841121 H 0.0 **** 0.06
27270 H 67.32429286632464 42.38676328950771 132.25015766375856 H 0.0 **** 0.06
27271 C 132.27695052582948 112.37427016838852 42.93378007745159 C 0.0 **** -0.24
27272 H 131.90031885529618 111.96691409456183 41.99527222501507 H 0.0 **** 0.06
27273 H 133.3662404430588 112.32379362650282 42.94099007904754 H 0.0 **** 0.06
27274 H 131.88008233983408 111.79476169671555 43.76680583742103 H 0.0 **** 0.06
27275 H 131.96102872417566 113.41338983745943 43.030703311368114 H 0.0 **** 0.06
27276 C 31.89700840874002 35.852852952924366 160.28322413201857 C 0.0 **** -0.24
27277 H 32.801433295757306 36.46105836403274 160.2558164982038 H 0.0 **** 0.06
27278 H 31.216333559986765 36.24798831209631 161.0365900022622 H 0.0 **** 0.06
27279 H 32.158607452827255 34.82395474455211 160.53253479730796 H 0.0 **** 0.06
27280 H 31.41346456384423 35.87837711290911 159.3070949343297 H 0.0 **** 0.06
27281 C 22.47821473220216 164.73975522272292 134.75092966869425 C 0.0 **** -0.24
27282 H 23.549719229196512 164.92762035528625 134.82276406023698 H 0.0 **** 0.06
27283 H 22.20822101809516 164.57406482386395 133.70765718955266 H 0.0 **** 0.06
27284 H 21.931505209428423 165.60003332627673 135.13607460999725 H 0.0 **** 0.06
27285 H 22.224738631150757 163.85585801025337 135.3368255335168 H 0.0 **** 0.06
27286 C 161.28164626394903 161.40187816224238 21.80766830984112 C 0.0 **** -0.24
27287 H 161.05338336258387 162.24986939188094 22.452134947219946 H 0.0 **** 0.06
27288 H 161.41197179076602 160.50758538244023 22.41762409617934 H 0.0 **** 0.06
27289 H 162.1987221992917 161.60178504023017 21.254690643581682 H 0.0 **** 0.06
27290 H 160.46118104050353 161.24784358096503 21.106459681824447 H 0.0 **** 0.06
27291 C 127.88896656607734 115.17956112745577 183.65579050678085 C 0.0 **** -0.24
27292 H 127.88504527564673 115.98382164361351 182.9207959603517 H 0.0 **** 0.06
27293 H 128.7649728968983 114.54908023216467 183.5006095356035 H 0.0 **** 0.06
27294 H 126.98473494960378 114.58091352214069 183.54277454085184 H 0.0 **** 0.06
27295 H 127.9199423425777 115.60496045633755 184.6595710156639 H 0.0 **** 0.06
27296 C 173.26584773402166 22.470294804630953 39.698904680867344 C 0.0 **** -0.24
27297 H 172.29439641166252 22.27509219171634 40.154076795232925 H 0.0 **** 0.06
27298 H 174.05171109109733 22.302697056616296 40.43537269845842 H 0.0 **** 0.06
27299 H 173.3043595929692 23.50418123225893 39.35484789565743 H 0.0 **** 0.06
27300 H 173.41016210455223 21.799020374502504 38.852477862111584 H 0.0 **** 0.06
27301 C 84.99642037212382 113.61224117758773 168.6219098981186 C 0.0 **** -0.24
27302 H 85.6453872683782 114.40991968809972 168.26059933642122 H 0.0 **** 0.06
27303 H 85.54680447353319 112.9886845256389 169.32813639524758 H 0.0 **** 0.06
27304 H 84.66550967883396 113.00339639357021 167.78039370027864 H 0.0 **** 0.06
27305 H 84.12963839754488 114.04698932257067 169.12031278487962 H 0.0 **** 0.06
27306 C 141.30293972439517 182.83940565195059 110.93414513662054 C 0.0 **** -0.24
27307 H 140.8887613216276 183.53394147147702 110.20402283034633 H 0.0 **** 0.06
27308 H 142.3388327415073 182.6176970080958 110.67797665424047 H 0.0 **** 0.06
27309 H 140.72212551871706 181.91749977702088 110.92937448493592 H 0.0 **** 0.06
27310 H 141.26241376878204 183.28977300146417 111.92699523260131 H 0.0 **** 0.06
27311 C 91.50765802167724 23.624228671210872 92.5103802668641 C 0.0 **** -0.24
27312 H 91.84910713169948 23.617255106320755 93.54542144190606 H 0.0 **** 0.06
27313 H 90.42872475524446 23.776689168058823 92.48533703616431 H 0.0 **** 0.06
27314 H 91.7515880586317 22.67134548162079 92.04185161220659 H 0.0 **** 0.06
27315 H 92.00137914064324 24.432363094535248 91.97076227981114 H 0.0 **** 0.06
27316 C 33.90400527069556 139.07321624148193 58.012998172150844 C 0.0 **** -0.24
27317 H 33.60178451053014 139.87661948861603 58.68405493082065 H 0.0 **** 0.06
27318 H 33.05522966726096 138.77569504488827 57.39800268233796 H 0.0 **** 0.06
27319 H 34.24639360771431 138.22064896294495 58.59811917251079 H 0.0 **** 0.06
27320 H 34.71369098666773 139.42229914717984 57.370771908232825 H 0.0 **** 0.06
27321 C 151.9950017649679 124.14105504337499 147.55494403951326 C 0.0 **** -0.24
27322 H 152.39375281874823 124.71808965606095 146.720918258765 H 0.0 **** 0.06
27323 H 152.4730516576198 123.16198823782673 147.58103706117538 H 0.0 **** 0.06
27324 H 150.91883188158238 124.0181831639843 147.42971118901056 H 0.0 **** 0.06
27325 H 152.19449037552002 124.66817446312461 148.48783029757877 H 0.0 **** 0.06
27326 C 114.48157961681743 109.67939722827293 184.2566571896355 C 0.0 **** -0.24
27327 H 115.03165357122948 109.70385383026257 185.19744137651543 H 0.0 **** 0.06
27328 H 114.22211210395513 108.64824485486213 184.01391289839842 H 0.0 **** 0.06
27329 H 115.10301279412532 110.09451481921911 183.46199210180356 H 0.0 **** 0.06
27330 H 113.571241066338 110.27084034031884 184.3529854019648 H 0.0 **** 0.06
27331 C 122.80102502556088 164.01860433656134 60.51673478216004 C 0.0 **** -0.24
27332 H 122.98415743675383 164.9984762895059 60.95901508761385 H 0.0 **** 0.06
27333 H 123.09830166575284 163.2408994930592 61.22084568270917 H 0.0 **** 0.06
27334 H 123.38115371555796 163.9197887347427 59.5993425330862 H 0.0 **** 0.06
27335 H 121.73969548003322 163.91730857555098 60.28880685293633 H 0.0 **** 0.06
27336 C 113.41012586643846 174.84629382781608 16.51325347027754 C 0.0 **** -0.24
27337 H 113.12195197759387 175.7413257539069 15.961934122051936 H 0.0 **** 0.06
27338 H 113.2628891943426 175.01452803351344 17.579850378904993 H 0.0 **** 0.06
27339 H 114.45999201509288 174.6242448245328 16.321514903793684 H 0.0 **** 0.06
27340 H 112.79622964756403 174.00593503390027 16.187996783984637 H 0.0 **** 0.06
27341 C 104.94988408696577 147.2100662651628 91.49314179590608 C 0.0 **** -0.24
27342 H 104.93456938087172 146.30965412292045 90.87881305338949 H 0.0 **** 0.06
27343 H 104.83235171146185 148.08663503720322 90.85558183336475 H 0.0 **** 0.06
27344 H 105.89920645474183 147.271370049827 92.02476030440376 H 0.0 **** 0.06
27345 H 104.13294039880805 147.17172354781928 92.21345853198066 H 0.0 **** 0.06
27346 C 142.91832846087908 125.29038187801332 14.830526515629487 C 0.0 **** -0.24
27347 H 141.99237609506883 125.44500177899452 15.386038270538307 H 0.0 **** 0.06
27348 H 143.64738692710358 126.04723847882404 15.121662612628867 H 0.0 **** 0.06
27349 H 142.7178530757472 125.37129611972593 13.762136197921237 H 0.0 **** 0.06
27350 H 143.3127595003268 124.2994815747062 15.052650523848705 H 0.0 **** 0.06
27351 C 163.90917292750697 143.8082277946019 27.275217454258154 C 0.0 **** -0.24
27352 H 163.28081301990082 142.9205193115639 27.2104423580941 H 0.0 **** 0.06
27353 H 163.38571165670984 144.65691065142946 26.83433642350724 H 0.0 **** 0.06
27354 H 164.84034170641866 143.63385164399884 26.735053539222974 H 0.0 **** 0.06
27355 H 164.1302678515324 144.02073615315214 28.321114959485755 H 0.0 **** 0.06
27356 C 44.49888700367899 78.71977349920525 184.48156461183268 C 0.0 **** -0.24
27357 H 45.20518672116401 79.51741246878699 184.25014257336954 H 0.0 **** 0.06
27358 H 43.81774266988674 79.05425361190507 185.26450256076293 H 0.0 **** 0.06
27359 H 45.04318955916966 77.84014815351503 184.82385735131408 H 0.0 **** 0.06
27360 H 43.9293068801332 78.46872283605182 183.58605222082113 H 0.0 **** 0.06
27361 C 95.73935539643556 4.039884576700331 30.99273169541496 C 0.0 **** -0.24
27362 H 96.73578901998148 4.283732563385286 31.3620873138548 H 0.0 **** 0.06
27363 H 95.39106247672974 4.836640764953017 30.336024786477452 H 0.0 **** 0.06
27364 H 95.05563620620056 3.9372914614475576 31.835475480681495 H 0.0 **** 0.06
27365 H 95.77736852840015 3.102314195509848 30.439035822539765 H 0.0 **** 0.06
27366 C 19.87014513252805 72.61024714173081 48.95890502092348 C 0.0 **** -0.24
27367 H 19.110129911519266 71.87244384426604 49.21544646709606 H 0.0 **** 0.06
27368 H 19.97507637833121 72.66362646487936 47.87522035832194 H 0.0 **** 0.06
27369 H 20.822844170131646 72.31887346951089 49.402675596590484 H 0.0 **** 0.06
27370 H 19.572869417352365 73.58585491376846 49.343637382453494 H 0.0 **** 0.06
27371 C 150.59103561871493 11.338347781168224 144.09092191264173 C 0.0 **** -0.24
27372 H 151.1968616171476 11.879456736960108 143.36381921652463 H 0.0 **** 0.06
27373 H 149.9831979521784 12.04658316265386 144.65558413325837 H 0.0 **** 0.06
27374 H 151.24381232183998 10.79483412378 144.77472734427505 H 0.0 **** 0.06
27375 H 149.9414841685096 10.634251757119962 143.5714326906922 H 0.0 **** 0.06
27376 C 29.93361030232697 61.39525268915162 174.66143254336134 C 0.0 **** -0.24
27377 H 30.464245678509826 62.347906807940035 174.65110691472742 H 0.0 **** 0.06
27378 H 29.38042567965843 61.27823330304224 173.72952235388237 H 0.0 **** 0.06
27379 H 29.24054749709171 61.37545680832952 175.5014297995255 H 0.0 **** 0.06
27380 H 30.651922951632088 60.581575289870415 174.76348350991822 H 0.0 **** 0.06
27381 C 67.97958173792414 175.19135089073797 82.0882227424874 C 0.0 **** -0.24
27382 H 67.95706916956892 176.05612105097086 81.4250152942894 H 0.0 **** 0.06
27383 H 67.19724500449884 174.49002921768883 81.79830464018586 H 0.0 **** 0.06
27384 H 67.81350317335114 175.51777206872276 83.11511246458792 H 0.0 **** 0.06
27385 H 68.95179582417563 174.70398421309068 82.01549824115959 H 0.0 **** 0.06
27386 C 90.42379061830393 159.97362396393368 176.7585586247746 C 0.0 **** -0.24
27387 H 91.02435538711187 159.14245894312975 176.38838293569233 H 0.0 **** 0.06
27388 H 89.51647012203473 159.58865667641265 177.22298519980822 H 0.0 **** 0.06
27389 H 90.15892217401522 160.6272404504563 175.92749631825677 H 0.0 **** 0.06
27390 H 90.99888820078509 160.53612775937023 177.4944027839737 H 0.0 **** 0.06
27391 C 118.16015878401743 15.585037088921453 147.81014565851385 C 0.0 **** -0.24
27392 H 118.77444580359258 15.888601247303065 148.65730538356297 H 0.0 **** 0.06
27393 H 118.05209437244827 14.499834135673645 147.80998099157011 H 0.0 **** 0.06
27394 H 118.63781713802092 15.903187386875388 146.88277610981717 H 0.0 **** 0.06
27395 H 117.1762778220081 16.048525585833765 147.89052014910501 H 0.0 **** 0.06
27396 C 138.89529131200248 76.69336559612964 57.17856507110031 C 0.0 **** -0.24
27397 H 137.96811695391477 76.95354832922965 57.69006095564578 H 0.0 **** 0.06
27398 H 139.73942120244914 77.13681440016188 57.70770142054374 H 0.0 **** 0.06
27399 H 138.8655148550841 77.07457053855927 56.15779892779585 H 0.0 **** 0.06
27400 H 139.00706677632797 75.60940439572693 57.158323549034264 H 0.0 **** 0.06
27401 C 166.88098140679813 32.9849415322453 56.4280969517564 C 0.0 **** -0.24
27402 H 167.06441339328902 33.248947890761684 55.38619641330692 H 0.0 **** 0.06
27403 H 167.78982663017374 33.145903901254414 57.008367450568585 H 0.0 **** 0.06
27404 H 166.5901664481185 31.936032686361997 56.490228018352695 H 0.0 **** 0.06
27405 H 166.07986352443712 33.60866999044157 56.82445954834708 H 0.0 **** 0.06
27406 C 122.24674055530812 87.30743000395778 48.97321948677268 C 0.0 **** -0.24
27407 H 121.61852862137863 88.13988911008603 48.657306603944704 H 0.0 **** 0.06
27408 H 121.6162408445087 86.467603677024 49.26706680298048 H 0.0 **** 0.06
27409 H 122.85886069580494 87.61544657960472 49.82149073545264 H 0.0 **** 0.06
27410 H 122.89313722821652 87.0059296683914 48.14930247700295 H 0.0 **** 0.06
27411 C 87.12606735151341 78.64070020499526 64.65660518455377 C 0.0 **** -0.24
27412 H 88.1534502528824 78.52033433838511 65.00214653879266 H 0.0 **** 0.06
27413 H 86.59537456240001 79.3170343091446 65.32726435638807 H 0.0 **** 0.06
27414 H 86.63039262767329 77.66999082428417 64.65050377262847 H 0.0 **** 0.06
27415 H 87.1288328015746 79.0540461176399 63.64868760912992 H 0.0 **** 0.06
27416 C 174.18158490057942 73.72942168783237 18.213196085907725 C 0.0 **** -0.24
27417 H 174.93753809765082 72.96677760832654 18.02126073157848 H 0.0 **** 0.06
27418 H 173.19066846001394 73.30885373389248 18.039418673285866 H 0.0 **** 0.06
27419 H 174.34047659967524 74.5744754731275 17.542929792614814 H 0.0 **** 0.06
27420 H 174.2589676346741 74.06527437645269 19.246535918453446 H 0.0 **** 0.06
27421 C 78.58275749457819 92.87106464067988 86.37737066107057 C 0.0 **** -0.24
27422 H 78.80458333718893 93.89773184659269 86.66834506292717 H 0.0 **** 0.06
27423 H 77.59127376101868 92.59657402086349 86.73690544072166 H 0.0 **** 0.06
27424 H 79.3252664089551 92.20181152030067 86.81195452601445 H 0.0 **** 0.06
27425 H 78.61131534254832 92.78810476310481 85.29054156187367 H 0.0 **** 0.06
27426 C 18.574317463089358 70.21829576951357 52.53948783471884 C 0.0 **** -0.24
27427 H 19.45190634890443 69.94748481333947 51.95257171336769 H 0.0 **** 0.06
27428 H 17.928906502056975 69.34716899613629 52.651265268012594 H 0.0 **** 0.06
27429 H 18.028778055533365 71.01377691479126 52.031782342162444 H 0.0 **** 0.06
27430 H 18.890054280838598 70.56576559174 53.52385889287788 H 0.0 **** 0.06
27431 C 61.44027778221198 44.117439493051165 111.3756020828252 C 0.0 **** -0.24
27432 H 60.92999586377272 44.062328624687495 112.3365263706612 H 0.0 **** 0.06
27433 H 61.97741309298618 45.06242630888306 111.30286346173426 H 0.0 **** 0.06
27434 H 60.7067937399097 44.052934337240615 110.57117518343574 H 0.0 **** 0.06
27435 H 62.1451086560304 43.2908340696181 111.29135688585768 H 0.0 **** 0.06
27436 C 77.65098595781728 91.05784522432646 166.3018397485386 C 0.0 **** -0.24
27437 H 76.67645604022673 91.46111299062125 166.02612809164378 H 0.0 **** 0.06
27438 H 77.54369231087807 90.01236326353398 166.58812608548004 H 0.0 **** 0.06
27439 H 78.05431640192327 91.62540934920571 167.14002520646181 H 0.0 **** 0.06
27440 H 78.3286992728085 91.13475567719132 165.45156872712312 H 0.0 **** 0.06
27441 C 21.87741333498309 182.75731998152486 107.73186603173764 C 0.0 **** -0.24
27442 H 20.790024542574415 182.7069624292365 107.79199178116897 H 0.0 **** 0.06
27443 H 22.189246006760925 182.63941149992726 106.69367512455409 H 0.0 **** 0.06
27444 H 22.311768700593106 181.95922761735082 108.3345594666228 H 0.0 **** 0.06
27445 H 22.21774985915404 183.72262498376614 108.10685892520064 H 0.0 **** 0.06
27446 C 181.31889385241706 178.1606307559403 5.23429401457534 C 0.0 **** -0.24
27447 H 181.5600622769417 178.7920088720918 6.089456472072101 H 0.0 **** 0.06
27448 H 180.61775902970342 177.3843804951043 5.5420989460392605 H 0.0 **** 0.06
27449 H 182.23044287486607 177.69936108453297 4.8547719152206525 H 0.0 **** 0.06
27450 H 180.86602518531475 178.76883820208747 4.45113053088113 H 0.0 **** 0.06
27451 C 77.82316422329359 132.9058165849433 106.93077719014936 C 0.0 **** -0.24
27452 H 78.70887859853559 133.34124077200306 107.3930554377536 H 0.0 **** 0.06
27453 H 77.57020095818183 131.97422001325032 107.43700715573824 H 0.0 **** 0.06
27454 H 78.02351549639127 132.7064193092255 105.8781051353488 H 0.0 **** 0.06
27455 H 76.98995467449771 133.604117349952 107.01617788474941 H 0.0 **** 0.06
27456 C 52.68245490329895 163.00548949469135 47.149702337495285 C 0.0 **** -0.24
27457 H 53.470378566953855 163.1683201009813 46.414773197222814 H 0.0 **** 0.06
27458 H 52.094415750467306 162.1319965767731 46.864640084274356 H 0.0 **** 0.06
27459 H 52.03554769689043 163.88143456414534 47.189934751726355 H 0.0 **** 0.06
27460 H 53.12854199435924 162.8381533820293 48.130414483258335 H 0.0 **** 0.06
27461 C 126.45662910973361 134.5298418683198 147.70814063901224 C 0.0 **** -0.24
27462 H 126.82163956494573 135.08127003956855 146.84219394336054 H 0.0 **** 0.06
27463 H 126.0775269067609 133.559660757872 147.38719283519958 H 0.0 **** 0.06
27464 H 125.65456641868631 135.09327722438883 148.1858543858766 H 0.0 **** 0.06
27465 H 127.27178285476619 134.3865645117109 148.4174778900997 H 0.0 **** 0.06
27466 C 7.061895088557691 68.33960072739981 134.98857522247414 C 0.0 **** -0.24
27467 H 6.349685072178119 69.12774615220049 135.2313076393603 H 0.0 **** 0.06
27468 H 6.633294196846407 67.68321142198165 134.23026937722295 H 0.0 **** 0.06
27469 H 7.284039655126946 67.7614454081992 135.88598014921422 H 0.0 **** 0.06
27470 H 7.9810900238677505 68.78519869330691 134.60646330023826 H 0.0 **** 0.06
27471 C 130.26709625290664 162.2481396102845 79.88089016017359 C 0.0 **** -0.24
27472 H 130.50974280365745 161.20322000004893 79.69006825581981 H 0.0 **** 0.06
27473 H 129.23601252374846 162.44194714694595 79.58332777426988 H 0.0 **** 0.06
27474 H 130.93822346093538 162.88782828235014 79.30682216504952 H 0.0 **** 0.06
27475 H 130.38455042719494 162.46096520551998 80.94345693316943 H 0.0 **** 0.06
27476 C 132.41693483406937 15.780843303774162 9.229030163727373 C 0.0 **** -0.24
27477 H 133.33792224916704 15.40000961460916 8.788418965433124 H 0.0 **** 0.06
27478 H 132.2753752185851 15.337194086134218 10.214692183577 H 0.0 **** 0.06
27479 H 131.57426549634937 15.522492153550274 8.589057202064367 H 0.0 **** 0.06
27480 H 132.48198377928668 16.86565524799053 9.32485863684704 H 0.0 **** 0.06
27481 C 15.110892320742437 131.84252861185882 55.768163859336 C 0.0 **** -0.24
27482 H 14.166340060256005 131.53082098095967 55.32099188686681 H 0.0 **** 0.06
27483 H 15.271421735750039 131.29330483068134 56.69717245291076 H 0.0 **** 0.06
27484 H 15.077646078426426 132.91102297455717 55.978643840327294 H 0.0 **** 0.06
27485 H 15.926950448192287 131.6329223019667 55.076445927619375 H 0.0 **** 0.06
27486 C 19.679770413353964 162.67531507143775 93.85648424304331 C 0.0 **** -0.24
27487 H 20.463385021657402 162.80232328377411 93.10987630669125 H 0.0 **** 0.06
27488 H 19.96856722263771 163.185147193278 94.77645979320245 H 0.0 **** 0.06
27489 H 19.539306046029154 161.61312892509315 94.05902494821659 H 0.0 **** 0.06
27490 H 18.748944056993075 163.10007439435887 93.48241988694711 H 0.0 **** 0.06
27491 C 151.31014545895238 142.4153041383974 122.18407070640679 C 0.0 **** -0.24
27492 H 151.38783178895812 143.4041924467316 122.63541990586698 H 0.0 **** 0.06
27493 H 151.14995774794298 141.67134164400727 122.9657989969452 H 0.0 **** 0.06
27494 H 152.2317441429082 142.18663477535063 121.64837250422492 H 0.0 **** 0.06
27495 H 150.4715747569741 142.39766402100685 121.48836721154412 H 0.0 **** 0.06
27496 C 93.69226900431191 77.82523170327488 176.68747825456956 C 0.0 **** -0.24
27497 H 94.26681492381375 78.38715382158517 175.95007814605668 H 0.0 **** 0.06
27498 H 94.2297112109576 77.81674545841156 177.63687926319193 H 0.0 **** 0.06
27499 H 93.55536288639091 76.80257510355545 176.33777334105855 H 0.0 **** 0.06
27500 H 92.71916261370525 78.29695487248512 176.82426849216282 H 0.0 **** 0.06
27501 C 177.86704558873873 52.158352400724254 173.12336503178324 C 0.0 **** -0.24
27502 H 178.68169804152956 51.45036103643858 173.2787998940662 H 0.0 **** 0.06
27503 H 177.42787790560428 51.99465599378749 172.13821040058053 H 0.0 **** 0.06
27504 H 178.25341464142917 53.175392402667455 173.18589454025408 H 0.0 **** 0.06
27505 H 177.1064384032606 52.010567175329356 173.88931971306909 H 0.0 **** 0.06
27506 C 172.42968127020947 98.39473973212688 16.034066277926726 C 0.0 **** -0.24
27507 H 173.40504691791205 97.94893989487969 16.22698776883052 H 0.0 **** 0.06
27508 H 172.5610922517311 99.40678545785369 15.651352333753046 H 0.0 **** 0.06
27509 H 171.8560632543971 98.42729698583378 16.960414896584084 H 0.0 **** 0.06
27510 H 171.8951344766774 97.79393216374302 15.297745441805453 H 0.0 **** 0.06
27511 C 62.1768363786195 124.64773391118364 8.239781334753815 C 0.0 **** -0.24
27512 H 61.807666082480864 125.66847521601709 8.335785643672267 H 0.0 **** 0.06
27513 H 62.93693618156979 124.60891900157178 7.4586026803613095 H 0.0 **** 0.06
27514 H 61.35108876924858 123.98620501306304 7.976361926290139 H 0.0 **** 0.06
27515 H 62.610989575661904 124.32857025488791 9.186366187048634 H 0.0 **** 0.06
27516 C 25.817048495538117 89.95095060819826 110.87004288239102 C 0.0 **** -0.24
27517 H 25.242219383926653 90.15898900276359 111.77354657891742 H 0.0 **** 0.06
27518 H 25.43750993968098 90.56021749294915 110.04957306637 H 0.0 **** 0.06
27519 H 25.72011859520066 88.89546064403184 110.61455920655906 H 0.0 **** 0.06
27520 H 26.865962246284383 90.18845058306358 111.04529427270454 H 0.0 **** 0.06
27521 C 88.41191141471255 48.08331225604216 32.12402084569867 C 0.0 **** -0.24
27522 H 87.74661447735146 48.71822481261533 32.70909040766621 H 0.0 **** 0.06
27523 H 87.86721393872368 47.20354225918298 31.78193786476615 H 0.0 **** 0.06
27524 H 89.25406207736525 47.771923914179425 32.74345120414897 H 0.0 **** 0.06
27525 H 88.78047519007687 48.64050224005322 31.26349868084297 H 0.0 **** 0.06
27526 C 63.7220854477699 30.0252538526572 126.67003626537765 C 0.0 **** -0.24
27527 H 64.57808726481397 30.009937793234783 125.99486466588327 H 0.0 **** 0.06
27528 H 63.988523576535684 30.559693985785174 127.5816649290844 H 0.0 **** 0.06
27529 H 63.43645940377705 29.003292000350243 126.91807070652759 H 0.0 **** 0.06
27530 H 62.887077208634835 30.528973077740304 126.18414376655765 H 0.0 **** 0.06
27531 C 1.229920484673272 19.638387066968733 62.29806412249661 C 0.0 **** -0.24
27532 H 1.6580018311570086 20.590299517331943 61.985890485316574 H 0.0 **** 0.06
27533 H 2.0120561934242716 18.87989056429487 62.3253797639815 H 0.0 **** 0.06
27534 H 0.4563530040146304 19.33876860904391 61.591852775690555 H 0.0 **** 0.06
27535 H 0.7937108698363033 19.745115938253605 63.291261727915966 H 0.0 **** 0.06
27536 C 47.506067221734725 3.479141940389752 86.23916432496391 C 0.0 **** -0.24
27537 H 48.22048901588033 2.6728898842773106 86.07166956383004 H 0.0 **** 0.06
27538 H 46.61083173901528 3.299791937464107 85.64358949708914 H 0.0 **** 0.06
27539 H 47.954392554289086 4.427707773259442 85.94534023559852 H 0.0 **** 0.06
27540 H 47.2397376317507 3.5140727334464543 87.29564563450897 H 0.0 **** 0.06
27541 C 104.61260177020841 148.23671733300347 50.90839065117137 C 0.0 **** -0.24
27542 H 105.1787366106214 147.80384435966837 51.73363710820627 H 0.0 **** 0.06
27543 H 105.24510245574254 148.93452850364696 50.360549623083244 H 0.0 **** 0.06
27544 H 103.74399564653066 148.76476186118032 51.30246520472602 H 0.0 **** 0.06
27545 H 104.28320639443001 147.4420841617126 50.239532554670745 H 0.0 **** 0.06
27546 C 135.65540559209757 118.00824488895427 68.03961283835486 C 0.0 **** -0.24
27547 H 135.29363731291193 117.52267373461223 67.13377361024493 H 0.0 **** 0.06
27548 H 136.36499750738204 117.35222516263997 68.5449996458974 H 0.0 **** 0.06
27549 H 134.81396233652123 118.21321268889307 68.70209440947951 H 0.0 **** 0.06
27550 H 136.14787205179192 118.94419450757294 67.77868674965472 H 0.0 **** 0.06
27551 C 86.6164361718369 56.31087643483383 98.35979010272753 C 0.0 **** -0.24
27552 H 86.56139444749711 55.93713539991461 97.33740885901751 H 0.0 **** 0.06
27553 H 86.19065787464716 57.31355914957513 98.40263386707976 H 0.0 **** 0.06
27554 H 87.65816583755527 56.34390745456166 98.67832991193588 H 0.0 **** 0.06
27555 H 86.05434151146686 55.64856980633971 99.01867013825289 H 0.0 **** 0.06
27556 C 131.8843444326235 145.58753735744574 173.7696106944137 C 0.0 **** -0.24
27557 H 132.14544552239784 145.0424399255446 174.67688925291 H 0.0 **** 0.06
27558 H 132.4186185455364 146.53739569552613 173.7510993167419 H 0.0 **** 0.06
27559 H 130.81005426211766 145.77374369830926 173.75578272685556 H 0.0 **** 0.06
27560 H 132.16156951738446 144.99533897145912 172.89822521331368 H 0.0 **** 0.06
27561 C 9.60744917453085 65.90872691814765 136.9042441005497 C 0.0 **** -0.24
27562 H 10.04735783794446 66.58489923160411 136.1698349621205 H 0.0 **** 0.06
27563 H 9.972644138761531 64.89721793557253 136.72971172032982 H 0.0 **** 0.06
27564 H 8.521489774233387 65.92579284577668 136.80865480240942 H 0.0 **** 0.06
27565 H 9.889603618745092 66.23028319986419 137.90664910037884 H 0.0 **** 0.06
27566 C 94.28567737377192 155.85771641133613 157.71923718155236 C 0.0 **** -0.24
27567 H 95.18165249365349 155.34941391303857 158.0776399646156 H 0.0 **** 0.06
27568 H 93.412516256086 155.46252881646348 158.23993078653405 H 0.0 **** 0.06
27569 H 94.17745178847177 155.68994308789914 156.6474934120008 H 0.0 **** 0.06
27570 H 94.37247215373331 156.92670941734605 157.91386755928718 H 0.0 **** 0.06
27571 C 48.840023067914856 21.266348933194564 6.553108879087574 C 0.0 **** -0.24
27572 H 48.38349305021457 22.172425007538976 6.156199790374387 H 0.0 **** 0.06
27573 H 49.05826495402471 21.403924263343498 7.612823891130148 H 0.0 **** 0.06
27574 H 49.7654560938158 21.06036013630856 6.015029237767607 H 0.0 **** 0.06
27575 H 48.15352831317617 20.42944597939706 6.428366185448709 H 0.0 **** 0.06
27576 C 133.48632725608968 34.367240311198486 88.25168397004359 C 0.0 **** -0.24
27577 H 134.02267784958468 35.17503963176641 88.74962840791869 H 0.0 **** 0.06
27578 H 133.0059135784689 33.73590692789345 88.99983184678553 H 0.0 **** 0.06
27579 H 134.18808410080283 33.77071492309199 87.66885453287728 H 0.0 **** 0.06
27580 H 132.72931124117258 34.787969293515076 87.59067775754448 H 0.0 **** 0.06
27581 C 157.87945089384868 102.64646841038274 169.30413500301975 C 0.0 **** -0.24
27582 H 157.81658799640644 101.5980953731559 169.59378576743904 H 0.0 **** 0.06
27583 H 157.97881352751796 103.2643834846491 170.19621256479795 H 0.0 **** 0.06
27584 H 156.9755910497612 102.9286810436439 168.76491356713848 H 0.0 **** 0.06
27585 H 158.74751738249904 102.79351834847284 168.6613595712536 H 0.0 **** 0.06
27586 C 184.06827791747153 21.48060154233204 55.47772413916161 C 0.0 **** -0.24
27587 H 183.00509870241217 21.2437892128437 55.50037831875537 H 0.0 **** 0.06
27588 H 184.28063704298287 22.268566520947346 56.20120405581139 H 0.0 **** 0.06
27589 H 184.34415436502766 21.82045420521972 54.47908319470656 H 0.0 **** 0.06
27590 H 184.64434262836548 20.59007499328967 55.73094795317712 H 0.0 **** 0.06
27591 C 112.10552087523395 114.98790745692118 158.1231940048512 C 0.0 **** -0.24
27592 H 111.80969926848262 116.0362257120875 158.1353898940664 H 0.0 **** 0.06
27593 H 111.22655088701775 114.36417869818767 157.95970833337577 H 0.0 **** 0.06
27594 H 112.56346467833826 114.72930348914237 159.07771001523045 H 0.0 **** 0.06
27595 H 112.82357950086966 114.82234400168103 157.31937129954196 H 0.0 **** 0.06
27596 C 88.36343898018451 32.658639516767025 107.59216653827254 C 0.0 **** -0.24
27597 H 87.31506586146234 32.38149170352219 107.71027369253109 H 0.0 **** 0.06
27598 H 88.80143357420066 32.847072049501946 108.57266299145248 H 0.0 **** 0.06
27599 H 88.43338127702172 33.560626142482164 106.9840279271268 H 0.0 **** 0.06
27600 H 88.900151923378 31.846865698322347 107.10264757844048 H 0.0 **** 0.06
27601 C 148.45512565171387 57.14736595995731 73.09873652545227 C 0.0 **** -0.24
27602 H 147.40633225581416 57.40488535882264 73.24752679080672 H 0.0 **** 0.06
27603 H 148.83816857292203 56.65753729685298 73.99459834081485 H 0.0 **** 0.06
27604 H 149.0277684839382 58.05594073451806 72.90759920594189 H 0.0 **** 0.06
27605 H 148.54703762506625 56.47387652776587 72.24742723734491 H 0.0 **** 0.06
27606 C 154.14537618769782 126.20607285607628 21.65956503286992 C 0.0 **** -0.24
27607 H 153.72687503892018 126.73935999663593 22.513644654077893 H 0.0 **** 0.06
27608 H 153.6085272094561 125.2670667036491 21.519922573214046 H 0.0 **** 0.06
27609 H 155.2000083851322 125.99981237516113 21.841397096249693 H 0.0 **** 0.06
27610 H 154.04379036458795 126.81969126687898 20.764712465410952 H 0.0 **** 0.06
27611 C 74.03264046783721 80.50505305824345 24.521676193958015 C 0.0 **** -0.24
27612 H 73.25980307692805 80.52076652548368 25.290916628339048 H 0.0 **** 0.06
27613 H 74.75587540977318 79.72224029511193 24.750843745744433 H 0.0 **** 0.06
27614 H 74.53726679240793 81.47049250655715 24.494412818303445 H 0.0 **** 0.06
27615 H 73.5760854108662 80.30632635180018 23.552114676356226 H 0.0 **** 0.06
27616 C 33.22929005157954 179.35796330048493 64.8911723690004 C 0.0 **** -0.24
27617 H 33.40158884757915 179.02136927169056 63.868297999207584 H 0.0 **** 0.06
27618 H 34.088185369634346 179.0963559159768 65.50950139251438 H 0.0 **** 0.06
27619 H 32.33559665470838 178.8741594368248 65.2850623183623 H 0.0 **** 0.06
27620 H 33.0908994117047 180.43899449243088 64.8987848285455 H 0.0 **** 0.06
27621 C 14.156153210260328 111.79508093505522 150.3610220365125 C 0.0 **** -0.24
27622 H 14.35717916808673 111.9853145556565 149.30653869961048 H 0.0 **** 0.06
27623 H 13.456162590177712 112.54139702053321 150.73784535988193 H 0.0 **** 0.06
27624 H 15.086833991116862 111.85189160615555 150.92428943258875 H 0.0 **** 0.06
27625 H 13.722771410107384 110.80065149011831 150.47437411436334 H 0.0 **** 0.06
27626 C 154.51989755456896 174.1725736999678 171.5087146570231 C 0.0 **** -0.24
27627 H 154.77902192266615 174.87361717176475 172.3008932527919 H 0.0 **** 0.06
27628 H 155.25109814855426 174.24692626824003 170.70351483043964 H 0.0 **** 0.06
27629 H 153.52927445720144 174.4105221429806 171.12227350938082 H 0.0 **** 0.06
27630 H 154.52018260293178 173.1574034340763 171.90736067482183 H 0.0 **** 0.06
27631 C 110.91826974766529 94.48508071510459 26.598023316198862 C 0.0 **** -0.24
27632 H 111.41556353392188 94.82518426663127 27.506661770042854 H 0.0 **** 0.06
27633 H 111.33651003030546 93.52499489943976 26.293310843067673 H 0.0 **** 0.06
27634 H 111.07165534343942 95.21727575951262 25.804225054697326 H 0.0 **** 0.06
27635 H 109.85063875196774 94.37317540024974 26.788390416879878 H 0.0 **** 0.06
27636 C 149.44925346269844 129.0294479846475 100.24682568323222 C 0.0 **** -0.24
27637 H 149.10436103561887 130.03889830847498 100.46844155539965 H 0.0 **** 0.06
27638 H 150.33297645362322 129.0779769249449 99.60994892825313 H 0.0 **** 0.06
27639 H 148.66025956917673 128.48051258943985 99.73300964141755 H 0.0 **** 0.06
27640 H 149.69925669096102 128.51914948064655 101.17708596430909 H 0.0 **** 0.06
27641 C 135.68858693288718 99.04520946904728 8.149540103943195 C 0.0 **** -0.24
27642 H 136.2602098109058 98.9184166929154 7.22978891095093 H 0.0 **** 0.06
27643 H 134.80712541559035 99.6543152507594 7.9471886179011335 H 0.0 **** 0.06
27644 H 136.30939138361896 99.54037627534836 8.896722846048561 H 0.0 **** 0.06
27645 H 135.37943962790683 98.06872418703676 8.523154631805085 H 0.0 **** 0.06
27646 C 158.58630024694048 119.15950227406597 60.66775038403061 C 0.0 **** -0.24
27647 H 159.48318790648605 118.58125481342267 60.892678805940875 H 0.0 **** 0.06
27648 H 158.70661801967424 119.6565117100584 59.70508916635177 H 0.0 **** 0.06
27649 H 158.43261208741546 119.90782265658578 61.445862806296006 H 0.0 **** 0.06
27650 H 157.72469496532972 118.49314479949658 60.62871945407426 H 0.0 **** 0.06
27651 C 17.246163261028585 65.13175715756176 104.07291059464906 C 0.0 **** -0.24
27652 H 17.36356711032812 64.16738644766679 104.56600470785479 H 0.0 **** 0.06
27653 H 17.501196807101365 65.92962109293349 104.76985849515914 H 0.0 **** 0.06
27654 H 16.211925673235612 65.25032990658578 103.7480837084136 H 0.0 **** 0.06
27655 H 17.905299018675862 65.17987182988607 103.20632858147549 H 0.0 **** 0.06
27656 C 0.37052758378590056 181.87623775816996 179.23577600284318 C 0.0 **** -0.24
27657 H 0.33598450535723146 182.7887096581552 178.64068931474628 H 0.0 **** 0.06
27658 H -0.2544387315276424 181.11468979295785 178.76895143883976 H 0.0 **** 0.06
27659 H 0.0019375011376041584 182.083602892125 180.24032187645253 H 0.0 **** 0.06
27660 H 1.3986131324028293 181.51862540536956 179.29240525207592 H 0.0 **** 0.06
27661 C 22.749185273041135 28.48289533337092 175.47614550200294 C 0.0 **** -0.24
27662 H 23.552004962029628 27.850349207198803 175.098636184417 H 0.0 **** 0.06
27663 H 22.381063752884216 28.077527953498873 176.41913183308904 H 0.0 **** 0.06
27664 H 21.935983797906133 28.51131568195774 174.75026532580523 H 0.0 **** 0.06
27665 H 23.1277649864373 29.492158271067808 175.63794193791415 H 0.0 **** 0.06
27666 C 43.86582846875608 9.317932555900953 151.10244875674834 C 0.0 **** -0.24
27667 H 43.54126096526679 9.33307884351408 150.06180477390046 H 0.0 **** 0.06
27668 H 43.747685747643686 10.312117848431434 151.53375406834633 H 0.0 **** 0.06
27669 H 44.914526225524554 9.022380582853579 151.15132046743756 H 0.0 **** 0.06
27670 H 43.26019985889391 8.604902359115762 151.66109647080984 H 0.0 **** 0.06
27671 C 174.5126318976903 91.29405661568512 135.14839820129976 C 0.0 **** -0.24
27672 H 174.95447939169568 91.84967024000252 134.32211095055254 H 0.0 **** 0.06
27673 H 175.05709608388327 91.51552545019825 136.06659462918861 H 0.0 **** 0.06
27674 H 174.5695522950579 90.22554922729648 134.94036119583717 H 0.0 **** 0.06
27675 H 173.46832142323578 91.58669407339903 135.2660645221285 H 0.0 **** 0.06
27676 C 36.21522850140589 8.368221557170045 60.5313482867999 C 0.0 **** -0.24
27677 H 37.240881842024095 8.053554230547547 60.72521182916543 H 0.0 **** 0.06
27678 H 36.17910394255303 8.933995325014791 59.60036363388589 H 0.0 **** 0.06
27679 H 35.86643015192065 8.994441513469354 61.35163336272744 H 0.0 **** 0.06
27680 H 35.57576135226773 7.4891553832938484 60.44756997826465 H 0.0 **** 0.06
27681 C 173.74809195384725 45.28556554268067 97.16398448066762 C 0.0 **** -0.24
27682 H 173.84304959494125 44.70381692536182 98.08050340566835 H 0.0 **** 0.06
27683 H 174.41223751826925 44.87687466919385 96.40283614647207 H 0.0 **** 0.06
27684 H 174.01773840492325 46.323001327524 97.36321339703063 H 0.0 **** 0.06
27685 H 172.71751587177562 45.2398325395838 96.81041861476014 H 0.0 **** 0.06
27686 C 138.84231187899098 37.53085651567682 80.62077760664693 C 0.0 **** -0.24
27687 H 139.93035758257423 37.5772344100167 80.6579929689593 H 0.0 **** 0.06
27688 H 138.53320188606642 36.953824716070756 79.74771189125605 H 0.0 **** 0.06
27689 H 138.4378539538272 38.54111916119723 80.54992166038954 H 0.0 **** 0.06
27690 H 138.46778288061057 37.05094078707026 81.52450005648468 H 0.0 **** 0.06
27691 C 102.54211511091192 47.47811233602697 109.98168288459006 C 0.0 **** -0.24
27692 H 102.46436013404583 47.52550097210329 111.06713799857634 H 0.0 **** 0.06
27693 H 101.7480644443177 46.842456056164664 109.58818316606009 H 0.0 **** 0.06
27694 H 103.51057740405703 47.06193987007339 109.70504301517899 H 0.0 **** 0.06
27695 H 102.44442847642073 48.48063954889028 109.56583813230442 H 0.0 **** 0.06
27696 C 14.899109470076063 127.65360720959787 92.71364320788759 C 0.0 **** -0.24
27697 H 14.115173036452795 128.13840555296457 93.29593403817033 H 0.0 **** 0.06
27698 H 14.495642335060097 127.34592072912871 91.74896986282825 H 0.0 **** 0.06
27699 H 15.261186914482614 126.77758287762153 93.25250467129267 H 0.0 **** 0.06
27700 H 15.721482217922741 128.35184857206116 92.55851609345781 H 0.0 **** 0.06
27701 C 93.1768716324384 173.8650719445674 68.75759121013994 C 0.0 **** -0.24
27702 H 92.6224644060211 172.96371239752048 68.49637299443998 H 0.0 **** 0.06
27703 H 94.034533340233 173.59764369490836 69.37455788733797 H 0.0 **** 0.06
27704 H 92.5276010213305 174.54334561703152 69.31154054992186 H 0.0 **** 0.06
27705 H 93.52341089132716 174.35506758001904 67.84721699924035 H 0.0 **** 0.06
27706 C 2.6770090364162797 15.245591241942535 175.79004221421903 C 0.0 **** -0.24
27707 H 2.2726920941026876 16.01068108804693 176.45236591609765 H 0.0 **** 0.06
27708 H 1.9125544257100415 14.492824056026691 175.59385834466326 H 0.0 **** 0.06
27709 H 3.5377789955922267 14.773200695588137 176.26392577132518 H 0.0 **** 0.06
27710 H 2.9856397601200584 15.703959011096849 174.8513279929771 H 0.0 **** 0.06
27711 C 117.12154120697785 76.39315728381594 43.50828453182518 C 0.0 **** -0.24
27712 H 116.8126391752758 75.3483993981884 43.52671923059168 H 0.0 **** 0.06
27713 H 117.84002532810369 76.54488170185336 42.703102801766036 H 0.0 **** 0.06
27714 H 117.58272320237363 76.65270730407977 44.46149769338531 H 0.0 **** 0.06
27715 H 116.25022288538894 77.02621902475954 43.34253604356158 H 0.0 **** 0.06
27716 C 80.81039358787092 18.092009193931084 83.81261235465693 C 0.0 **** -0.24
27717 H 79.92887080546859 18.711896115128816 83.9760875863398 H 0.0 **** 0.06
27718 H 81.57203362294513 18.342371388391527 84.55098731944345 H 0.0 **** 0.06
27719 H 81.2003464537562 18.27196762911909 82.81118034610763 H 0.0 **** 0.06
27720 H 80.53864618026608 17.040752083471148 83.91363821464367 H 0.0 **** 0.06
27721 C 111.2174613233525 9.123471297314303 120.04141566815059 C 0.0 **** -0.24
27722 H 110.18973583812124 9.4201341137979 120.24998425239505 H 0.0 **** 0.06
27723 H 111.81634986225976 9.227038005459036 120.94634982212466 H 0.0 **** 0.06
27724 H 111.62761049967673 9.760058899916153 119.25816780702377 H 0.0 **** 0.06
27725 H 111.23463795466404 8.08370196121863 119.71112622887478 H 0.0 **** 0.06
27726 C 131.11449749042305 20.16868554847958 65.91423256692059 C 0.0 **** -0.24
27727 H 130.4685427891344 19.623947581439772 66.6030332948576 H 0.0 **** 0.06
27728 H 132.005088700741 20.5084042115381 66.444899072709 H 0.0 **** 0.06
27729 H 130.57738342898347 21.028856242689073 65.5155983924102 H 0.0 **** 0.06
27730 H 131.40756818502575 19.51142043784614 65.09567560426285 H 0.0 **** 0.06
27731 C 70.56366135327029 98.10739409755367 65.21843626574145 C 0.0 **** -0.24
27732 H 71.35898791977111 98.70045509352987 64.76732135499887 H 0.0 **** 0.06
27733 H 70.91549104613614 97.08670903902724 65.37374654008778 H 0.0 **** 0.06
27734 H 69.69850642233185 98.09688372510762 64.55644924975365 H 0.0 **** 0.06
27735 H 70.28247479631221 98.54494902219399 66.17624635487235 H 0.0 **** 0.06
27736 C 96.02538502503803 162.69978970525057 99.80302693986233 C 0.0 **** -0.24
27737 H 96.75699080750995 163.02418938229715 100.54337631961413 H 0.0 **** 0.06
27738 H 95.06931675569784 163.18670971294944 99.99840033619331 H 0.0 **** 0.06
27739 H 95.90225624996803 161.61853135962423 99.86265119158959 H 0.0 **** 0.06
27740 H 96.37409255817822 162.97082737147983 98.80579675668479 H 0.0 **** 0.06
27741 C 146.6851700516183 134.23397090819986 46.43134478629116 C 0.0 **** -0.24
27742 H 146.97208506483284 135.26492645517783 46.63895211569695 H 0.0 **** 0.06
27743 H 147.5402458369084 133.69369616549403 46.02488695217511 H 0.0 **** 0.06
27744 H 145.87051951915447 134.22304388783664 45.70648100557207 H 0.0 **** 0.06
27745 H 146.35690686916695 133.75564402887716 47.353294895739964 H 0.0 **** 0.06
27746 C 158.64213451459534 6.6559104433376035 49.1870740138956 C 0.0 **** -0.24
27747 H 158.64103283891288 7.220418107874345 50.11954881147636 H 0.0 **** 0.06
27748 H 159.52375989098414 6.015539687402054 49.152644894173875 H 0.0 **** 0.06
27749 H 158.66211729754022 7.347409624734851 48.34494580213499 H 0.0 **** 0.06
27750 H 157.74431639610188 6.042024571534753 49.13308262543251 H 0.0 **** 0.06
27751 C 80.24044385189161 0.215316159238796 94.39763699232272 C 0.0 **** -0.24
27752 H 79.43347730104993 -0.3851886612176827 93.97774497065679 H 0.0 **** 0.06
27753 H 80.78679947717939 0.7039030301706646 93.58980854168287 H 0.0 **** 0.06
27754 H 80.91826635509499 -0.42886080522620773 94.95736911224365 H 0.0 **** 0.06
27755 H 79.82341345484927 0.9705453026813302 95.06357163135785 H 0.0 **** 0.06
27756 C 177.1599117683557 148.44917505202577 80.43446587078361 C 0.0 **** -0.24
27757 H 177.13324085132842 147.85480899032035 79.52078976459886 H 0.0 **** 0.06
27758 H 178.13318107436837 148.9305561556809 80.52602151497365 H 0.0 **** 0.06
27759 H 176.99147506987845 147.8003370122796 81.29319842950923 H 0.0 **** 0.06
27760 H 176.3796256578786 149.21025048658714 80.39486574208902 H 0.0 **** 0.06
27761 C 96.4979036057058 167.32371396614377 158.04215997714078 C 0.0 **** -0.24
27762 H 95.75162027005001 166.5302018768809 158.02228328257064 H 0.0 **** 0.06
27763 H 97.11330895438186 167.26644692820113 157.14387765710705 H 0.0 **** 0.06
27764 H 97.12941965859892 167.20706336838063 158.9230683061087 H 0.0 **** 0.06
27765 H 95.99882330520973 168.29162401144708 158.07882522838605 H 0.0 **** 0.06
27766 C 25.223825427648535 45.320423206871794 149.61677269688252 C 0.0 **** -0.24
27767 H 24.299218605041403 45.80023702886518 149.29430826821223 H 0.0 **** 0.06
27768 H 25.07109729246335 44.85771033347666 150.59183283782403 H 0.0 **** 0.06
27769 H 26.014825253779122 46.068157905989466 149.6877832646504 H 0.0 **** 0.06
27770 H 25.509030812522525 44.557746592892784 148.89291662931663 H 0.0 **** 0.06
27771 C 82.71995187902621 37.705036777620876 90.15403779197247 C 0.0 **** -0.24
27772 H 82.88390452088021 38.49312394791809 90.88777443594064 H 0.0 **** 0.06
27773 H 82.41303686798383 38.14865530485315 89.20631991847547 H 0.0 **** 0.06
27774 H 81.93936082554191 37.03239560196073 90.5108484469106 H 0.0 **** 0.06
27775 H 83.64413823231445 37.14403422758119 90.00924784536555 H 0.0 **** 0.06
27776 C 56.06988300247191 160.64954749839808 22.18419546611841 C 0.0 **** -0.24
27777 H 55.739269800515046 161.30000206539336 21.374218837445994 H 0.0 **** 0.06
27778 H 55.58339965915451 160.94913949713552 23.11289831104098 H 0.0 **** 0.06
27779 H 57.151561109640525 160.73105628793994 22.297116613623544 H 0.0 **** 0.06
27780 H 55.80584280305686 159.61784526745032 21.95124987140032 H 0.0 **** 0.06
27781 C 9.199953889664414 182.39868383191452 125.762990051766 C 0.0 **** -0.24
27782 H 8.8019993526068 181.64357553046597 126.44045517134083 H 0.0 **** 0.06
27783 H 10.208207735963555 182.1179024469194 125.45923135125327 H 0.0 **** 0.06
27784 H 9.227822472090423 183.3625114083519 126.26977903201515 H 0.0 **** 0.06
27785 H 8.560800663997156 182.46948650708583 124.88316024613778 H 0.0 **** 0.06
27786 C 96.91081813620406 66.1674898048757 10.680623308826483 C 0.0 **** -0.24
27787 H 96.01382393898194 65.77274321987711 11.158125052429028 H 0.0 **** 0.06
27788 H 96.92654034227957 67.25353653684256 10.780336450507946 H 0.0 **** 0.06
27789 H 96.90816094434388 65.89943531727059 9.624139474515431 H 0.0 **** 0.06
27790 H 97.79388050186606 65.7453517357909 11.160040314924402 H 0.0 **** 0.06
27791 C 164.5423926149523 105.03695030686117 63.98167046860539 C 0.0 **** -0.24
27792 H 163.63107705148957 104.55067213079383 63.633163868472835 H 0.0 **** 0.06
27793 H 165.32519779521454 104.29038451893217 64.11352995126275 H 0.0 **** 0.06
27794 H 164.34951674223848 105.53376336597978 64.93215246679522 H 0.0 **** 0.06
27795 H 164.86337058634675 105.77460640842799 63.24534716230265 H 0.0 **** 0.06
27796 C 101.19091545242577 156.26553319977523 154.23703821400596 C 0.0 **** -0.24
27797 H 101.83044249908926 156.72639544357526 153.4834716672076 H 0.0 **** 0.06
27798 H 101.78864640328976 156.0085006935011 155.11176295582035 H 0.0 **** 0.06
27799 H 100.73832238441759 155.3632965884462 153.82752760689607 H 0.0 **** 0.06
27800 H 100.4077958988517 156.96710347322875 154.52616846743 H 0.0 **** 0.06
27801 C 79.12774470135344 71.91408875173803 12.67166375646216 C 0.0 **** -0.24
27802 H 78.575309641839 72.77688459112636 12.299468634953548 H 0.0 **** 0.06
27803 H 79.31934404694334 72.03738073738154 13.7370576331205 H 0.0 **** 0.06
27804 H 80.0749642508041 71.83218893519468 12.138681668633303 H 0.0 **** 0.06
27805 H 78.54134728770805 71.01009993273271 12.509005719141783 H 0.0 **** 0.06
27806 C 20.466184650178548 15.824814772206068 4.4594097568033675 C 0.0 **** -0.24
27807 H 21.51008356682837 16.01675704116942 4.216092016395734 H 0.0 **** 0.06
27808 H 19.86540825297783 16.6959666427124 4.199189679337145 H 0.0 **** 0.06
27809 H 20.37335569238411 15.625354613164305 5.5275023653749855 H 0.0 **** 0.06
27810 H 20.11498989474353 14.95919111305286 3.8969114803348077 H 0.0 **** 0.06
27811 C 3.406265738336799 151.27623971625306 137.22687821822177 C 0.0 **** -0.24
27812 H 2.4965699148622775 150.74344817809452 137.50351163055888 H 0.0 **** 0.06
27813 H 4.142006023286513 150.56479472724206 136.85096647242767 H 0.0 **** 0.06
27814 H 3.808411640044028 151.78703903058877 138.10117683487033 H 0.0 **** 0.06
27815 H 3.177813208452278 152.0065275463475 136.4508514913676 H 0.0 **** 0.06
27816 C 43.71442572783839 113.55096260951235 83.01697154374308 C 0.0 **** -0.24
27817 H 43.5757700000524 112.49853135923765 83.26689442261959 H 0.0 **** 0.06
27818 H 44.36998999255394 114.0161053084884 83.75269711122228 H 0.0 **** 0.06
27819 H 42.74788517299265 114.05471526218047 83.02109235450642 H 0.0 **** 0.06
27820 H 44.16233211178593 113.63334026424614 82.02637719144323 H 0.0 **** 0.06
27821 C 134.31594286498347 82.6718815377838 184.85350207828202 C 0.0 **** -0.24
27822 H 133.34745565066106 82.3018679504658 184.51699528129194 H 0.0 **** 0.06
27823 H 134.9713281274249 81.82847883655126 185.07275176465052 H 0.0 **** 0.06
27824 H 134.1811700073012 83.27165243352874 185.753962809188 H 0.0 **** 0.06
27825 H 134.76206212120496 83.28584471232892 184.07164648277694 H 0.0 **** 0.06
27826 C 93.73875839137808 48.886832517258256 81.28550541254886 C 0.0 **** -0.24
27827 H 93.54606056599708 49.62866686336616 82.06081420614613 H 0.0 **** 0.06
27828 H 92.81132465759113 48.66547975650826 80.7566604396158 H 0.0 **** 0.06
27829 H 94.12382845344253 47.976526820716686 81.74204662835595 H 0.0 **** 0.06
27830 H 94.47243521732183 49.27993365904905 80.58191379490233 H 0.0 **** 0.06
27831 C 53.43566537939154 180.1568130062148 111.89246070337948 C 0.0 **** -0.24
27832 H 52.70549413049247 180.69051251898287 111.28307726825308 H 0.0 **** 0.06
27833 H 54.10383994203164 180.87513469811074 112.3681445051294 H 0.0 **** 0.06
27834 H 54.01542219917948 179.48527302669993 111.25965628273117 H 0.0 **** 0.06
27835 H 52.916496118875614 179.5799294135195 112.65752537489216 H 0.0 **** 0.06
27836 C 67.84508627859304 154.9199222813765 36.23613530010476 C 0.0 **** -0.24
27837 H 68.81465350875294 155.39162034658824 36.079589271408 H 0.0 **** 0.06
27838 H 67.4227506114317 155.26425622560095 37.17996371327365 H 0.0 **** 0.06
27839 H 67.96791793180677 153.8371538568066 36.26620677827293 H 0.0 **** 0.06
27840 H 67.17582128066937 155.1872557461038 35.41886146284514 H 0.0 **** 0.06
27841 C 162.42578182342697 12.187302329509123 81.32933969772354 C 0.0 **** -0.24
27842 H 162.85196053254265 12.45598032786674 82.29635067216498 H 0.0 **** 0.06
27843 H 162.64357688203563 12.974039886813443 80.60596377181609 H 0.0 **** 0.06
27844 H 161.34633018414036 12.072044490602877 81.42718218095685 H 0.0 **** 0.06
27845 H 162.86166350666554 11.248468392487723 80.98815301432684 H 0.0 **** 0.06
27846 C 117.23543245285349 15.090543305090279 169.88718839351642 C 0.0 **** -0.24
27847 H 117.7445333954921 15.658320869553194 169.10888818726326 H 0.0 **** 0.06
27848 H 116.90594714485512 15.769274213266073 170.67391779504712 H 0.0 **** 0.06
27849 H 117.91986376953095 14.352909254969717 170.30572529119328 H 0.0 **** 0.06
27850 H 116.37035505505635 14.582741951358372 169.4593352957269 H 0.0 **** 0.06
27851 C 106.44056338944455 142.08770967397044 114.09481645984937 C 0.0 **** -0.24
27852 H 106.30553675314462 143.12359923792866 113.78480522650443 H 0.0 **** 0.06
27853 H 107.42089723839388 141.73667834280008 113.77273431163923 H 0.0 **** 0.06
27854 H 105.6656814286232 141.46874870465496 113.64333377921247 H 0.0 **** 0.06
27855 H 106.37010210563028 142.02243314310414 115.18054043179336 H 0.0 **** 0.06
27856 C 165.56291216949683 35.7122370323157 179.12447909563923 C 0.0 **** -0.24
27857 H 164.81704124097857 35.59270904463256 179.90993181072818 H 0.0 **** 0.06
27858 H 165.16171177794376 35.33661599815753 178.18333434565116 H 0.0 **** 0.06
27859 H 166.46027759667635 35.15089535528995 179.3874547791852 H 0.0 **** 0.06
27860 H 165.8127298485036 36.76749120317882 179.01840316239984 H 0.0 **** 0.06
27861 C 86.66458424827368 183.30208269534964 8.416940354682424 C 0.0 **** -0.24
27862 H 87.65727053811383 183.28952333360746 7.965825535601624 H 0.0 **** 0.06
27863 H 86.06469472410618 182.4932417724919 7.998326793226482 H 0.0 **** 0.06
27864 H 86.18324005066592 184.25732483551917 8.209396240468095 H 0.0 **** 0.06
27865 H 86.75510235374713 183.16739197662523 9.494842135317128 H 0.0 **** 0.06
27866 C 126.64974661081635 113.30510967836365 65.93561124727661 C 0.0 **** -0.24
27867 H 126.59104103872824 114.37563687486396 65.73788529512223 H 0.0 **** 0.06
27868 H 126.678325182467 112.76184582618298 64.99105314087213 H 0.0 **** 0.06
27869 H 125.77620902541474 112.99266022892705 66.50910041739695 H 0.0 **** 0.06
27870 H 127.55386346570862 113.0901975335028 66.50529260306391 H 0.0 **** 0.06
27871 C 152.5143283229593 50.57560185495447 121.13828126485198 C 0.0 **** -0.24
27872 H 152.41557705662362 50.23907822194718 122.16985257661572 H 0.0 **** 0.06
27873 H 153.56912360777415 50.72223026557327 120.90344002536985 H 0.0 **** 0.06
27874 H 151.9794417334712 51.516749880289694 121.01092705986086 H 0.0 **** 0.06
27875 H 152.09328166858006 49.82571583112127 120.46925136471312 H 0.0 **** 0.06
27876 C 66.2147698480698 114.15852211629307 131.05542929499512 C 0.0 **** -0.24
27877 H 66.3703908545379 113.13174376280482 131.38541817456274 H 0.0 **** 0.06
27878 H 65.14706748720073 114.37924147624899 131.0496837155008 H 0.0 **** 0.06
27879 H 66.61650086569321 114.28135519721558 130.0494856612583 H 0.0 **** 0.06
27880 H 66.72408655729083 114.84000370424424 131.73618672403222 H 0.0 **** 0.06
27881 C 67.92406087649745 89.99046378684129 50.18890459670607 C 0.0 **** -0.24
27882 H 68.6422332998621 90.51767433863573 50.81768738276506 H 0.0 **** 0.06
27883 H 66.94643641791338 90.46439902727458 50.27968555019095 H 0.0 **** 0.06
27884 H 67.85519398286382 88.95075582495708 50.50966008140409 H 0.0 **** 0.06
27885 H 68.2523622007188 90.03028348332317 49.15068738689084 H 0.0 **** 0.06
27886 C 129.139751723156 9.622600324177718 136.5134128367455 C 0.0 **** -0.24
27887 H 129.6200768858098 8.773124989415116 136.99896278928713 H 0.0 **** 0.06
27888 H 129.7343765150565 10.521327071496778 136.68147826785025 H 0.0 **** 0.06
27889 H 128.14202756374067 9.762628289283079 136.93005902670154 H 0.0 **** 0.06
27890 H 129.06243593472624 9.432356630297697 135.44290222468413 H 0.0 **** 0.06
27891 C 126.0384636239775 94.0632251873837 33.95047111067231 C 0.0 **** -0.24
27892 H 126.60232346103327 93.8235042575842 33.04957972088778 H 0.0 **** 0.06
27893 H 126.72771077444712 94.34811900992389 34.745483212988944 H 0.0 **** 0.06
27894 H 125.46472602271736 93.19010156126836 34.26212263897639 H 0.0 **** 0.06
27895 H 125.35892396605682 94.8899512624705 33.74401237943465 H 0.0 **** 0.06
27896 C 0.8404790580236465 87.40043720678382 124.45046440906346 C 0.0 **** -0.24
27897 H 0.06426640047823184 86.66422014480933 124.66211917804368 H 0.0 **** 0.06
27898 H 0.38687772296381695 88.38770478075178 124.35378984495613 H 0.0 **** 0.06
27899 H 1.3440827036051815 87.13896051924449 123.51949626366671 H 0.0 **** 0.06
27900 H 1.5632941781019554 87.40993859321621 125.26518052212471 H 0.0 **** 0.06
27901 C 26.88358016279912 171.06517599975598 173.2935021221741 C 0.0 **** -0.24
27902 H 27.827449905696156 171.24246112009095 173.8085004172833 H 0.0 **** 0.06
27903 H 26.963396556552667 170.16057643474318 172.68991173499666 H 0.0 **** 0.06
27904 H 26.657130969451742 171.9139541366312 172.64891948365158 H 0.0 **** 0.06
27905 H 26.0867070279688 170.94397999988342 174.02801701456258 H 0.0 **** 0.06
27906 C 183.69487147187166 20.442727488004373 178.0887950258291 C 0.0 **** -0.24
27907 H 183.07331823606938 20.754016115348946 178.92775289336237 H 0.0 **** 0.06
27908 H 184.74235786010243 20.44697207578063 178.39089537879045 H 0.0 **** 0.06
27909 H 183.55478800428656 21.13312096770477 177.25666532232492 H 0.0 **** 0.06
27910 H 183.40960015392722 19.437305063112582 177.7780195376891 H 0.0 **** 0.06
27911 C 28.370967791867713 119.4606385787912 155.60787096706517 C 0.0 **** -0.24
27912 H 28.025208488579153 118.97001370112879 154.6977692651458 H 0.0 **** 0.06
27913 H 27.674854054267087 120.2537348966054 155.8787514384931 H 0.0 **** 0.06
27914 H 29.360001655225688 119.8864904659416 155.43698630913724 H 0.0 **** 0.06
27915 H 28.42494089678746 118.73073044088427 156.41511278834045 H 0.0 **** 0.06
27916 C 60.756497788471265 42.46963679647962 169.56635131884136 C 0.0 **** -0.24
27917 H 61.13643419941137 41.573656834683675 169.07410074438792 H 0.0 **** 0.06
27918 H 61.30613153075819 43.34038746952734 169.2086889347123 H 0.0 **** 0.06
27919 H 60.88732845897839 42.37437740148505 170.6436230171713 H 0.0 **** 0.06
27920 H 59.69723566441843 42.588032964049376 169.33716913138812 H 0.0 **** 0.06
27921 C 34.546687287404126 14.515522142229067 25.05706785975117 C 0.0 **** -0.24
27922 H 35.40158931981426 14.584902444445369 25.729939511634228 H 0.0 **** 0.06
27923 H 34.02487590827354 15.472191090078056 25.03323990829344 H 0.0 **** 0.06
27924 H 33.86847111034035 13.739224500443108 25.41223425451517 H 0.0 **** 0.06
27925 H 34.89340115190373 14.265016261710159 24.054563166405927 H 0.0 **** 0.06
27926 C 169.41364030132178 105.5401402620851 8.54772883220619 C 0.0 **** -0.24
27927 H 169.9187728611546 105.73067715334143 9.493794957697673 H 0.0 **** 0.06
27928 H 169.80468164721918 104.6235768297354 8.105051156196822 H 0.0 **** 0.06
27929 H 169.58803593427857 106.37428021913563 7.8676662814284555 H 0.0 **** 0.06
27930 H 168.34298183458606 105.43103867264456 8.722399005223735 H 0.0 **** 0.06
27931 C 184.62764436817443 154.93352832517587 161.8682931640725 C 0.0 **** -0.24
27932 H 184.66416307823258 155.38066858849095 160.87490233879478 H 0.0 **** 0.06
27933 H 185.29131123495327 154.06919147426498 161.90230016056535 H 0.0 **** 0.06
27934 H 183.60813547234812 154.61830626189845 162.0880839734865 H 0.0 **** 0.06
27935 H 184.94828672029527 155.66770390475688 162.60830268877297 H 0.0 **** 0.06
27936 C 84.64253022645312 137.99410313657626 66.992485646678 C 0.0 **** -0.24
27937 H 85.54532390832156 138.25092981655416 66.43897777004508 H 0.0 **** 0.06
27938 H 83.89861270271439 137.58897709628752 66.30684874487292 H 0.0 **** 0.06
27939 H 84.24595583880438 138.88711878339694 67.47510782001575 H 0.0 **** 0.06
27940 H 84.882686742479 137.2484454843708 67.75044730720185 H 0.0 **** 0.06
27941 C 139.28118317802978 55.17799656124102 104.31690008415099 C 0.0 **** -0.24
27942 H 139.40468978405278 55.116546787780536 103.23469979845017 H 0.0 **** 0.06
27943 H 140.21705109801422 54.904913573540384 104.80502741995518 H 0.0 **** 0.06
27944 H 138.49362201700808 54.49454859265238 104.6310299998343 H 0.0 **** 0.06
27945 H 139.00992877436659 56.197172304410586 104.59293672292581 H 0.0 **** 0.06
27946 C 109.09623233367131 149.60707297372494 127.44662080972171 C 0.0 **** -0.24
27947 H 108.4590998669828 150.49197857789102 127.42138804032686 H 0.0 **** 0.06
27948 H 108.91774081552325 149.0069793828094 126.55335048790778 H 0.0 **** 0.06
27949 H 108.86284949738757 149.01745383967761 128.3329396469748 H 0.0 **** 0.06
27950 H 110.14187605923098 149.912794290796 127.47744338110294 H 0.0 **** 0.06
27951 C 6.152937896395912 136.83658496792742 22.33440406047363 C 0.0 **** -0.24
27952 H 6.965670778018307 137.20512971508924 21.709023072709414 H 0.0 **** 0.06
27953 H 6.367836074840511 135.81336216194836 22.643436808608016 H 0.0 **** 0.06
27954 H 5.2218335204040045 136.85736920094308 21.767259420122173 H 0.0 **** 0.06
27955 H 6.056398834178992 137.47149750970505 23.21507518798913 H 0.0 **** 0.06
27956 C 62.87326909108687 1.6137162150158701 125.15882405700732 C 0.0 **** -0.24
27957 H 62.59241812907899 2.6083588633742636 125.50469411265222 H 0.0 **** 0.06
27958 H 63.324434711045726 1.0564224418983486 125.98033097678068 H 0.0 **** 0.06
27959 H 63.58967651672893 1.701585401655933 124.34220372722918 H 0.0 **** 0.06
27960 H 61.984343807741354 1.0882536600934714 124.80777371496187 H 0.0 **** 0.06
27961 C 176.20687230482136 75.81552126544763 50.06615663411405 C 0.0 **** -0.24
27962 H 176.4214165226794 74.78906505450925 50.362036282283356 H 0.0 **** 0.06
27963 H 177.02160616474924 76.46378708953141 50.389326142785166 H 0.0 **** 0.06
27964 H 175.2765070094058 76.14152969582872 50.53153528848166 H 0.0 **** 0.06
27965 H 176.1089507495493 75.8677954808235 48.98182359552493 H 0.0 **** 0.06
27966 C 161.48263882351696 147.5303007270224 98.72901636789477 C 0.0 **** -0.24
27967 H 160.4304966861224 147.5451071523974 98.44400397445163 H 0.0 **** 0.06
27968 H 161.58246193153371 147.10415069171773 99.72696217903761 H 0.0 **** 0.06
27969 H 161.87416228562597 148.5462856297035 98.72564654134116 H 0.0 **** 0.06
27970 H 162.04178732573962 146.92322822945425 98.01623145877953 H 0.0 **** 0.06
27971 C 114.34449039124765 131.17368066124135 49.68528152115766 C 0.0 **** -0.24
27972 H 114.7953043187711 132.12649223894198 49.96320825415819 H 0.0 **** 0.06
27973 H 114.9614330678299 130.68885251299457 48.927408304977064 H 0.0 **** 0.06
27974 H 113.34566421272784 131.34784444681208 49.28426827782198 H 0.0 **** 0.06
27975 H 114.27735151590029 130.53278524228756 50.56374652800923 H 0.0 **** 0.06
27976 C 141.09624316808885 182.48655607488365 184.2926365239497 C 0.0 **** -0.24
27977 H 141.7775694036349 182.02492803257206 183.57813637176676 H 0.0 **** 0.06
27978 H 141.42330094138708 182.25828536189076 185.30643336109176 H 0.0 **** 0.06
27979 H 140.08948952019773 182.09644176942984 184.13837596561243 H 0.0 **** 0.06
27980 H 141.09379515658537 183.56700344364674 184.14492775409425 H 0.0 **** 0.06
27981 C 29.370261998137607 107.48175118179826 162.16801294401387 C 0.0 **** -0.24
27982 H 29.36344281345106 106.65545441084659 162.8785806739312 H 0.0 **** 0.06
27983 H 28.638025917725997 108.22978201041992 162.47431932791721 H 0.0 **** 0.06
27984 H 29.116797043712154 107.11001578652225 161.17591333148283 H 0.0 **** 0.06
27985 H 30.36206601018722 107.93245845105743 162.14496725914455 H 0.0 **** 0.06
27986 C 100.6176114272135 50.97671976491874 83.95847726526702 C 0.0 **** -0.24
27987 H 100.14917125063788 50.1923242578638 84.55221696528949 H 0.0 **** 0.06
27988 H 101.67035128422519 50.73619886736296 83.8054057456506 H 0.0 **** 0.06
27989 H 100.53369340551463 51.928692195358664 84.4826944153328 H 0.0 **** 0.06
27990 H 100.11724683062882 51.047808251656974 82.99199286520326 H 0.0 **** 0.06
27991 C 63.94606386967867 132.01888735653375 104.9603092330371 C 0.0 **** -0.24
27992 H 63.37715275172121 131.99482414149327 105.889741029503 H 0.0 **** 0.06
27993 H 63.34945746261204 132.49702610217008 104.18270809761822 H 0.0 **** 0.06
27994 H 64.18887934835811 131.00082231761274 104.65655345496111 H 0.0 **** 0.06
27995 H 64.86585623610031 132.582694601784 105.1115267023061 H 0.0 **** 0.06
27996 C 76.05877626934902 111.45540554610562 47.431968183185006 C 0.0 **** -0.24
27997 H 75.80495400330808 110.75506542229743 46.63674977858642 H 0.0 **** 0.06
27998 H 75.42472515581389 111.2665319340403 48.29840416743832 H 0.0 **** 0.06
27999 H 75.90285434496003 112.47577483822204 47.08206645506769 H 0.0 **** 0.06
28000 H 77.10447473181877 111.32329341283577 47.71186191686064 H 0.0 **** 0.06
28001 C 103.46092773459013 43.92569567973467 24.881076151414874 C 0.0 **** -0.24
28002 H 103.12916034987155 44.807635120700766 24.33508756551082 H 0.0 **** 0.06
28003 H 104.2612882431264 43.43519100970806 24.326322504668227 H 0.0 **** 0.06
28004 H 102.62606997815216 43.23534284288672 24.999717793472684 H 0.0 **** 0.06
28005 H 103.82847310239704 44.22253852357018 25.86294583289424 H 0.0 **** 0.06
28006 C 144.6654490799673 153.34328074637813 157.56821733847025 C 0.0 **** -0.24
28007 H 144.8009935006459 152.26210207194396 157.60260857409145 H 0.0 **** 0.06
28008 H 145.4240858840093 153.82310086706735 158.18716986756598 H 0.0 **** 0.06
28009 H 143.67508657175586 153.5974391314825 157.94435820441532 H 0.0 **** 0.06
28010 H 144.76355035674896 153.68902753345108 156.53918154638913 H 0.0 **** 0.06
28011 C 150.1158802899251 11.330508138651005 149.2348335852799 C 0.0 **** -0.24
28012 H 150.98111752031548 10.73811956925244 149.53041039785677 H 0.0 **** 0.06
28013 H 149.2028474576733 10.78425126953207 149.47286269644093 H 0.0 **** 0.06
28014 H 150.15644680923089 11.52137242977949 148.16251808180795 H 0.0 **** 0.06
28015 H 150.12310937248105 12.278289286040057 149.7735431650139 H 0.0 **** 0.06
28016 C 114.0662148533943 38.987418481994794 6.1232769289911175 C 0.0 **** -0.24
28017 H 114.95759673153522 39.252865140565945 6.691016978194 H 0.0 **** 0.06
28018 H 113.17784369945052 39.25440877651944 6.695712288098093 H 0.0 **** 0.06
28019 H 114.06492776846845 37.91428941655592 5.930280208390002 H 0.0 **** 0.06
28020 H 114.06461140641927 39.5267662281704 5.1765204768204285 H 0.0 **** 0.06
28021 C 2.710849541653971 139.9750603598199 98.26580117314482 C 0.0 **** -0.24
28022 H 2.5513112525574115 139.822968754199 99.33274869427332 H 0.0 **** 0.06
28023 H 2.8156160193837607 141.04134879044307 98.06271902730573 H 0.0 **** 0.06
28024 H 1.859175977004341 139.58064892540978 97.71143746040453 H 0.0 **** 0.06
28025 H 3.6178201662409677 139.45443128750014 97.95618842595773 H 0.0 **** 0.06
28026 C 61.44957244154159 107.67271718640559 71.92660134302685 C 0.0 **** -0.24
28027 H 61.94270197110575 106.72266374709092 72.131186487055 H 0.0 **** 0.06
28028 H 61.75936613561896 108.03803048605054 70.94681848161196 H 0.0 **** 0.06
28029 H 61.72802384785484 108.39883870480195 72.68932454270089 H 0.0 **** 0.06
28030 H 60.36908941183151 107.53015136431954 71.93712591427322 H 0.0 **** 0.06
28031 C 27.190295769673185 60.15485869634547 111.90046670397038 C 0.0 **** -0.24
28032 H 26.457236881739675 60.108663385899646 111.09605512654161 H 0.0 **** 0.06
28033 H 26.743125665127536 59.779281279905575 112.82122882465404 H 0.0 **** 0.06
28034 H 27.507517120608156 61.186923401527935 112.04481484391084 H 0.0 **** 0.06
28035 H 28.05368605693718 59.54219289250079 111.64023565611484 H 0.0 **** 0.06
28036 C 71.33185437833362 176.85177184352125 151.32065051965836 C 0.0 **** -0.24
28037 H 72.23070518906792 177.32860911922458 150.9303176040637 H 0.0 **** 0.06
28038 H 70.47488036755749 177.1393696687371 150.71025192973192 H 0.0 **** 0.06
28039 H 71.16834553761458 177.16986639069756 152.3495698770539 H 0.0 **** 0.06
28040 H 71.45292219217117 175.76858569776982 151.2895902330602 H 0.0 **** 0.06
28041 C 121.4759588979693 47.005898775402386 90.2065382950491 C 0.0 **** -0.24
28042 H 122.53506727955731 47.17427783233461 90.39830967254538 H 0.0 **** 0.06
28043 H 120.89361237853736 47.81382189916155 90.65085366707551 H 0.0 **** 0.06
28044 H 121.17443144074092 46.0554691146159 90.64691656119759 H 0.0 **** 0.06
28045 H 121.30072984524564 46.980520643173264 89.13139827055154 H 0.0 **** 0.06
28046 C 20.525324436316133 137.82951949123174 166.23573699621028 C 0.0 **** -0.24
28047 H 20.99892346978548 137.12612197121263 166.9204385677519 H 0.0 **** 0.06
28048 H 21.100590999038772 138.75468823915844 166.21102834375768 H 0.0 **** 0.06
28049 H 19.511206116075016 138.03968073706193 166.57541867615572 H 0.0 **** 0.06
28050 H 20.491246437636335 137.3948455191105 165.23625332194604 H 0.0 **** 0.06
28051 C 92.36380131938618 105.85778606854943 42.558927827937396 C 0.0 **** -0.24
28052 H 91.36324638840962 106.28178846530186 42.64705372946287 H 0.0 **** 0.06
28053 H 92.71138761738213 105.95937640050708 41.5298872157432 H 0.0 **** 0.06
28054 H 92.33759477709897 104.8034560050199 42.8313515020871 H 0.0 **** 0.06
28055 H 93.04256692037312 106.38960886658323 43.22534220568065 H 0.0 **** 0.06
28056 C 176.4301498788643 158.06079993290746 99.97241247614443 C 0.0 **** -0.24
28057 H 175.83297864506275 158.96771629832926 99.87215474288865 H 0.0 **** 0.06
28058 H 176.43674365511018 157.52295699078343 99.02441202625027 H 0.0 **** 0.06
28059 H 175.9988818297459 157.42727201657362 100.74745286906506 H 0.0 **** 0.06
28060 H 177.45025460235723 158.3281423714236 100.2472519293566 H 0.0 **** 0.06
28061 C 55.57672718553192 109.30482566590199 73.6921918046556 C 0.0 **** -0.24
28062 H 55.612182067543216 109.05238385150473 72.63230055970674 H 0.0 **** 0.06
28063 H 55.116218479183544 108.48573322217821 74.24546902975084 H 0.0 **** 0.06
28064 H 54.989769480936644 110.21252128262647 73.82948223871922 H 0.0 **** 0.06
28065 H 56.58964578028798 109.46771644354838 74.0603845235004 H 0.0 **** 0.06
28066 C 10.511132076099386 139.551744203809 117.82940895338861 C 0.0 **** -0.24
28067 H 11.247510816588772 138.7492234221616 117.86642378770937 H 0.0 **** 0.06
28068 H 9.53326379017443 139.13539607343233 117.58779312363477 H 0.0 **** 0.06
28069 H 10.798819331787854 140.27289439929706 117.06421498605188 H 0.0 **** 0.06
28070 H 10.466603931829127 140.048115449874 118.79802195970872 H 0.0 **** 0.06
28071 C 39.23252431892183 127.40691111001793 101.5018837952827 C 0.0 **** -0.24
28072 H 38.83439597206444 127.5863805171693 102.50067802813173 H 0.0 **** 0.06
28073 H 39.93734647368737 126.57579014264884 101.53608972910705 H 0.0 **** 0.06
28074 H 39.74260784627006 128.30320592872624 101.14865333052511 H 0.0 **** 0.06
28075 H 38.41510176642112 127.16299847510048 100.82354586082256 H 0.0 **** 0.06
28076 C 57.379710516153594 170.79510199105744 184.24397122624177 C 0.0 **** -0.24
28077 H 58.10627967708143 170.34211687722316 183.5684624279347 H 0.0 **** 0.06
28078 H 57.259753584157636 171.84931167566418 183.99262950906348 H 0.0 **** 0.06
28079 H 57.732552574289016 170.70301419609694 185.27064968474812 H 0.0 **** 0.06
28080 H 56.42150856610564 170.2843633321425 184.14133865863027 H 0.0 **** 0.06
28081 C 130.62771619187095 96.69823737555281 31.590575859160992 C 0.0 **** -0.24
28082 H 129.76379101140475 96.153467060052 31.972084658099618 H 0.0 **** 0.06
28083 H 131.51207990240522 96.06412563734067 31.651547078064368 H 0.0 **** 0.06
28084 H 130.78302154956725 97.59693857660166 32.18806709513473 H 0.0 **** 0.06
28085 H 130.45175549417723 96.97779784284252 30.551856869244034 H 0.0 **** 0.06
28086 C 66.52948636070965 46.76771310470261 108.8070547858194 C 0.0 **** -0.24
28087 H 66.97314453929086 47.68112326665607 108.41222870568832 H 0.0 **** 0.06
28088 H 65.44597261279183 46.878380051969714 108.84921099778906 H 0.0 **** 0.06
28089 H 66.91532849364962 46.58030398319812 109.81004934194426 H 0.0 **** 0.06
28090 H 66.78437200114924 45.930125675473136 108.15791075934665 H 0.0 **** 0.06
28091 C 37.69762266675205 13.337338791919237 84.35998337657693 C 0.0 **** -0.24
28092 H 37.49604122479619 12.275209814249017 84.49943344892954 H 0.0 **** 0.06
28093 H 38.07104810815535 13.761195125120857 85.29177176063591 H 0.0 **** 0.06
28094 H 36.77814303284768 13.845817794966763 84.07113799788355 H 0.0 **** 0.06
28095 H 38.44398241891349 13.464769491412746 83.57592030575557 H 0.0 **** 0.06
28096 C 167.51560392564335 30.046054749273452 40.625373294164675 C 0.0 **** -0.24
28097 H 167.26657109567287 29.077917130158298 41.06128566329018 H 0.0 **** 0.06
28098 H 168.26059381794846 30.5428084965352 41.247402355226626 H 0.0 **** 0.06
28099 H 166.61822457361058 30.66105566894194 40.57094452930119 H 0.0 **** 0.06
28100 H 167.91760215024408 29.899963717100036 39.623104774372564 H 0.0 **** 0.06
28101 C 117.93627045435335 109.37730533204284 36.88720593150401 C 0.0 **** -0.24
28102 H 117.10713038436592 108.82149067115326 36.45018058577131 H 0.0 **** 0.06
28103 H 118.82192276282996 109.2592523002122 36.26375600864924 H 0.0 **** 0.06
28104 H 118.1422430004123 108.99461727273199 37.88733169762986 H 0.0 **** 0.06
28105 H 117.67313431142003 110.43285441983524 36.94915620197693 H 0.0 **** 0.06
28106 C 90.80564555750051 82.03586681616117 150.66410890255224 C 0.0 **** -0.24
28107 H 91.81122982201391 81.71572293501754 150.39120865128655 H 0.0 **** 0.06
28108 H 90.70476569501601 83.10627267232962 150.48474915239487 H 0.0 **** 0.06
28109 H 90.63200044717588 81.82614072401816 151.72013765955342 H 0.0 **** 0.06
28110 H 90.07579476101431 81.49595352858267 150.0614134542651 H 0.0 **** 0.06
28111 C 123.03829715287868 19.338326456597514 23.181166890899476 C 0.0 **** -0.24
28112 H 122.4782251141991 20.25853040582882 23.348598596686998 H 0.0 **** 0.06
28113 H 123.90846328545929 19.319387361694453 23.83691955936797 H 0.0 **** 0.06
28114 H 123.36387502773864 19.294866084857688 22.142353346488164 H 0.0 **** 0.06
28115 H 122.40046454647789 18.481287569765897 23.398453078208036 H 0.0 **** 0.06
28116 C 70.91759536575934 52.08765302931545 167.36499858232455 C 0.0 **** -0.24
28117 H 71.99830867243435 52.179533255455596 167.25861190017136 H 0.0 **** 0.06
28118 H 70.44302569260064 53.02942687444971 167.08814477528918 H 0.0 **** 0.06
28119 H 70.67357580030081 51.84712834638799 168.39910479493534 H 0.0 **** 0.06
28120 H 70.5548198932149 51.292989239216126 166.71233802416126 H 0.0 **** 0.06
28121 C 26.479866096729467 7.0932796188138525 103.93236797886293 C 0.0 **** -0.24
28122 H 26.437031560986043 7.71844405411116 103.0407548434875 H 0.0 **** 0.06
28123 H 25.97849208156022 7.602156380238597 104.75606326184051 H 0.0 **** 0.06
28124 H 27.52133982472978 6.910874055970957 104.1979128082874 H 0.0 **** 0.06
28125 H 25.98304436373016 6.144015340717004 103.73516547490222 H 0.0 **** 0.06
28126 C 58.94522770109688 175.70922927738232 1.8782882472638391 C 0.0 **** -0.24
28127 H 58.69283262325905 174.90068344462216 2.564070804249525 H 0.0 **** 0.06
28128 H 58.684561070539814 175.416972123703 0.8598968264981792 H 0.0 **** 0.06
28129 H 60.01484063571738 175.91228381400512 1.9350368056993048 H 0.0 **** 0.06
28130 H 58.38995271828594 176.60541556249268 2.152758951058722 H 0.0 **** 0.06
28131 C 176.84656499643899 83.69877268092121 147.72135429822993 C 0.0 **** -0.24
28132 H 175.76617614207726 83.6645738292208 147.85957770665027 H 0.0 **** 0.06
28133 H 177.32654523140644 83.95145713813149 148.66699741879629 H 0.0 **** 0.06
28134 H 177.09445052125133 84.45261835671322 146.97390206922552 H 0.0 **** 0.06
28135 H 177.20030097290865 82.72345459199498 147.3841601459495 H 0.0 **** 0.06
28136 C 49.04634217644559 173.83855002104212 182.69662396287347 C 0.0 **** -0.24
28137 H 49.019012341802565 172.9125980662714 182.12202025091855 H 0.0 **** 0.06
28138 H 48.85256504817278 173.61860409871832 183.74700180281874 H 0.0 **** 0.06
28139 H 48.28461549678059 174.52097535391857 182.32137676414666 H 0.0 **** 0.06
28140 H 50.029287506354166 174.29922885225568 182.59652469154608 H 0.0 **** 0.06
28141 C 120.40377494223594 1.6201776296861894 146.3066640765104 C 0.0 **** -0.24
28142 H 120.98629209955124 2.4537877142357942 145.91287938767744 H 0.0 **** 0.06
28143 H 120.8939458717449 1.223372440385937 147.1961855693879 H 0.0 **** 0.06
28144 H 120.33223474963125 0.8380938188243263 145.55143017012426 H 0.0 **** 0.06
28145 H 119.40392457324072 1.9669014875225344 146.5666393724559 H 0.0 **** 0.06
28146 C 121.95050882485803 176.02129266249895 65.55889161482612 C 0.0 **** -0.24
28147 H 121.88204877463967 175.17142896170031 64.87935994518632 H 0.0 **** 0.06
28148 H 121.03199231799427 176.60459070433055 65.50332042683972 H 0.0 **** 0.06
28149 H 122.79668539165151 176.6458146051614 65.27419546230527 H 0.0 **** 0.06
28150 H 122.09135087512387 175.66059875298808 66.57798081262297 H 0.0 **** 0.06
28151 C 132.98363466493117 179.30850103255375 42.818178412445434 C 0.0 **** -0.24
28152 H 132.283498457919 179.3284758149178 43.653053643046405 H 0.0 **** 0.06
28153 H 132.59537579997084 178.65823261665238 42.03460876572257 H 0.0 **** 0.06
28154 H 133.94721078868724 178.93019804370923 43.16110302872909 H 0.0 **** 0.06
28155 H 133.108511364501 180.3172918333952 42.424927489681636 H 0.0 **** 0.06
28156 C 0.7425420536583971 37.63842924072003 70.58360777734129 C 0.0 **** -0.24
28157 H 0.010245619259841021 37.402471905903326 71.35577643341459 H 0.0 **** 0.06
28158 H 1.4074412646524053 36.78540972764989 70.44144885835587 H 0.0 **** 0.06
28159 H 1.3255084879440062 38.50738073570396 70.8881201547901 H 0.0 **** 0.06
28160 H 0.2259479072319337 37.856442130403934 69.64813716546175 H 0.0 **** 0.06
28161 C 37.52012974662185 150.9529137164207 116.20905838284938 C 0.0 **** -0.24
28162 H 36.9852682913737 151.6625677359072 115.57779555214825 H 0.0 **** 0.06
28163 H 36.8033811527727 150.38062580596642 116.79857121598235 H 0.0 **** 0.06
28164 H 38.191074821462365 151.4936345515195 116.87573448194502 H 0.0 **** 0.06
28165 H 38.099536006270895 150.27498994585017 115.58295368636578 H 0.0 **** 0.06
28166 C 0.5161882091006191 89.28878846121349 38.39969968938638 C 0.0 **** -0.24
28167 H 0.043290921948596406 89.81589371565481 39.22852933284791 H 0.0 **** 0.06
28168 H 1.5467143720334207 89.0484793713487 38.66359884347891 H 0.0 **** 0.06
28169 H 0.5060992081992026 89.92260289097764 37.51299182137332 H 0.0 **** 0.06
28170 H -0.031162920671135907 88.36894556933173 38.1957704414162 H 0.0 **** 0.06
28171 C 160.04865552591502 123.80376391044238 41.484670153607084 C 0.0 **** -0.24
28172 H 160.86344269052728 124.06260953235055 40.8098937931189 H 0.0 **** 0.06
28173 H 159.1646411578664 123.542302318392 40.90293670947054 H 0.0 **** 0.06
28174 H 159.82360073529753 124.65518600819094 42.12692875806583 H 0.0 **** 0.06
28175 H 160.34332827033796 122.95328272018297 42.100665380018995 H 0.0 **** 0.06
28176 C 25.671885097357006 41.07757154125812 149.03837734517148 C 0.0 **** -0.24
28177 H 26.183885669301503 40.15234531106756 149.3043834003851 H 0.0 **** 0.06
28178 H 25.83045747274329 41.81877985391381 149.8218423465745 H 0.0 **** 0.06
28179 H 24.605037061672647 40.884030366557425 148.93096495109822 H 0.0 **** 0.06
28180 H 26.0696646304271 41.454375762589336 148.09591016070962 H 0.0 **** 0.06
28181 C 115.41664577700335 104.27602248181147 99.64892316411748 C 0.0 **** -0.24
28182 H 114.54642908323187 103.85002733080596 99.14952512493086 H 0.0 **** 0.06
28183 H 115.38553217130514 105.3627513087582 99.56818424877984 H 0.0 **** 0.06
28184 H 116.32542946213756 103.90248192375735 99.17719228257998 H 0.0 **** 0.06
28185 H 115.4085881390041 103.98905904860608 100.70002801343092 H 0.0 **** 0.06
28186 C 157.67779815220703 10.400585779685287 52.059003848005446 C 0.0 **** -0.24
28187 H 157.48926267606637 9.485896528950754 52.61986682513238 H 0.0 **** 0.06
28188 H 157.8532632641988 10.155928085787941 51.012013428191835 H 0.0 **** 0.06
28189 H 158.55537073074925 10.901957632059386 52.46793662226359 H 0.0 **** 0.06
28190 H 156.81299503227822 11.059525404420505 52.13842994674856 H 0.0 **** 0.06
28191 C 62.133054276881495 155.67631875552405 168.77197245767772 C 0.0 **** -0.24
28192 H 63.031404084845164 155.3254704799891 168.26334735879928 H 0.0 **** 0.06
28193 H 61.89597780870302 155.00314205025788 169.59712655726474 H 0.0 **** 0.06
28194 H 61.30096780130383 155.69636925810585 168.0684609597251 H 0.0 **** 0.06
28195 H 62.30380591019676 156.68061424822181 169.1606559079766 H 0.0 **** 0.06
28196 C 15.201475669417675 139.41962967307882 148.8033197851722 C 0.0 **** -0.24
28197 H 15.252886604819821 138.39964517071354 148.42274536720984 H 0.0 **** 0.06
28198 H 15.162576147028403 140.1179629185043 147.96719905637752 H 0.0 **** 0.06
28199 H 16.08507188900225 139.62535980407256 149.4075740357502 H 0.0 **** 0.06
28200 H 14.30795755524099 139.5342062420409 149.41645837992536 H 0.0 **** 0.06
28201 C 130.22874136660857 135.6051660004373 177.8248581799578 C 0.0 **** -0.24
28202 H 130.8850903291896 136.4714132734009 177.73106526485742 H 0.0 **** 0.06
28203 H 130.83083570104515 134.6981541701481 177.88201869175703 H 0.0 **** 0.06
28204 H 129.57171017282406 135.5525406346262 176.95754802234347 H 0.0 **** 0.06
28205 H 129.62967331489205 135.7019090793271 178.73030481486353 H 0.0 **** 0.06
28206 C 107.6936018267059 54.16188823834261 154.22523392093666 C 0.0 **** -0.24
28207 H 107.67017703284239 53.08230252550129 154.07731391978754 H 0.0 **** 0.06
28208 H 106.71693869141757 54.58220195297736 153.98342224409532 H 0.0 **** 0.06
28209 H 108.44904167341048 54.60141919060605 153.57432415003996 H 0.0 **** 0.06
28210 H 107.93627862950808 54.38074556111452 155.2647207104768 H 0.0 **** 0.06
28211 C 110.5621288282316 144.4558157768886 142.63758448943537 C 0.0 **** -0.24
28212 H 110.37371773099453 143.3899566663876 142.77231391410936 H 0.0 **** 0.06
28213 H 110.83997505265334 144.89848494811446 143.59412766374487 H 0.0 **** 0.06
28214 H 109.66021820933996 144.93852749655343 142.26157120781005 H 0.0 **** 0.06
28215 H 111.37305812189747 144.59301322086392 141.92324502470734 H 0.0 **** 0.06
28216 C 139.3915781178515 32.90021001202166 4.609353318306269 C 0.0 **** -0.24
28217 H 139.28654071760457 32.360713998172315 3.66823560455623 H 0.0 **** 0.06
28218 H 140.26332479334667 32.525255019378704 5.146934833710638 H 0.0 **** 0.06
28219 H 138.49832407471422 32.751164187046754 5.215904979527103 H 0.0 **** 0.06
28220 H 139.5194509730125 33.96376994425228 4.405855930207103 H 0.0 **** 0.06
28221 C 51.5415316464663 37.64713146656976 35.13726681856053 C 0.0 **** -0.24
28222 H 51.339279938112426 37.86741421273081 34.08894190271741 H 0.0 **** 0.06
28223 H 50.621383217447416 37.747498530730525 35.713635368292444 H 0.0 **** 0.06
28224 H 52.28658627587551 38.34629610156364 35.51700985877116 H 0.0 **** 0.06
28225 H 51.91815159199905 36.62899866722398 35.22819727674951 H 0.0 **** 0.06
28226 C 168.63117463766838 158.03213953529507 97.22185861533212 C 0.0 **** -0.24
28227 H 168.43416418158253 158.73244032174645 98.03409015435018 H 0.0 **** 0.06
28228 H 168.84727780617774 157.04677327646712 97.63655387361972 H 0.0 **** 0.06
28229 H 169.48782676291333 158.3787995504256 96.64383670029027 H 0.0 **** 0.06
28230 H 167.75666945320245 157.97062507368435 96.57481302608512 H 0.0 **** 0.06
28231 C 10.168554243415144 14.035556826773238 141.63290864676884 C 0.0 **** -0.24
28232 H 9.517134784555836 14.901448966244288 141.7470569320118 H 0.0 **** 0.06
28233 H 10.995100459681261 14.287992408320967 140.96911878667316 H 0.0 **** 0.06
28234 H 9.600931027894568 13.20733519103787 141.2080578683159 H 0.0 **** 0.06
28235 H 10.560731918979933 13.744508827528577 142.6072951677014 H 0.0 **** 0.06
28236 C 64.45018256663764 163.5909465941213 178.88661962607762 C 0.0 **** -0.24
28237 H 64.35414348269444 164.33036844193276 179.68189077261985 H 0.0 **** 0.06
28238 H 64.26428952944104 164.06694931281132 177.9241911682298 H 0.0 **** 0.06
28239 H 63.72422439707873 162.79340653429284 179.04352387207757 H 0.0 **** 0.06
28240 H 65.45705274232921 163.1742271247706 178.89813845292116 H 0.0 **** 0.06
28241 C 83.239597064922 61.66658688771898 71.61191156062694 C 0.0 **** -0.24
28242 H 82.31232755141475 62.064187183057086 72.02362578301393 H 0.0 **** 0.06
28243 H 83.62512830808015 60.88724689827808 72.27048824167798 H 0.0 **** 0.06
28244 H 83.97407346669405 62.46808999616715 71.53008517803437 H 0.0 **** 0.06
28245 H 83.04781292110424 61.24723023290473 70.62440855096901 H 0.0 **** 0.06
28246 C 95.82435895601651 50.772262270189984 75.01107044281567 C 0.0 **** -0.24
28247 H 95.88053246119182 50.01368085024666 75.79231441920771 H 0.0 **** 0.06
28248 H 95.73253635616362 50.286360405975486 74.03943555038137 H 0.0 **** 0.06
28249 H 96.72839187729909 51.37986332528652 75.030143108575 H 0.0 **** 0.06
28250 H 94.95490475955938 51.40723319961802 75.18348477264959 H 0.0 **** 0.06
28251 C 44.56313153222993 130.42724175398126 107.38575326699667 C 0.0 **** -0.24
28252 H 43.91562701612986 131.20306092909448 107.79451465934049 H 0.0 **** 0.06
28253 H 45.2546622451697 130.8712078345293 106.67033609367262 H 0.0 **** 0.06
28254 H 43.9548100133311 129.67349968019795 106.88600415508496 H 0.0 **** 0.06
28255 H 45.125625539968155 129.96154483646876 108.19541940408617 H 0.0 **** 0.06
28256 C 113.35722513235187 85.31634977401875 128.41121907770014 C 0.0 **** -0.24
28257 H 112.82549182924593 86.26156245022541 128.51832203222932 H 0.0 **** 0.06
28258 H 114.1708498753526 85.27436667359477 129.13525675422073 H 0.0 **** 0.06
28259 H 113.76276389504393 85.24109276261694 127.4023355095013 H 0.0 **** 0.06
28260 H 112.66795669423159 84.48998103195625 128.58918290483444 H 0.0 **** 0.06
28261 C 62.830388327302416 177.72303757385848 46.52406607722949 C 0.0 **** -0.24
28262 H 63.222428479428544 177.7586709345092 47.54032497002487 H 0.0 **** 0.06
28263 H 63.04302982633645 176.74746261243206 46.08678304227465 H 0.0 **** 0.06
28264 H 63.30469057702953 178.50012122434453 45.9249043860203 H 0.0 **** 0.06
28265 H 61.753497005800696 177.88663446339382 46.543977677336045 H 0.0 **** 0.06
28266 C 99.18889653543908 49.07323905868378 114.12644135430533 C 0.0 **** -0.24
28267 H 99.00634802015219 49.493785115499975 115.11505321085183 H 0.0 **** 0.06
28268 H 99.55568356834931 49.85560361654632 113.46103593940607 H 0.0 **** 0.06
28269 H 98.26080230722704 48.66363620007559 113.72905371105303 H 0.0 **** 0.06
28270 H 99.93340680353407 48.280672142105686 114.2004717711887 H 0.0 **** 0.06
28271 C 138.6040628149405 149.56564872489184 183.61315534840816 C 0.0 **** -0.24
28272 H 139.0714146940772 150.24514418144713 182.89941621908338 H 0.0 **** 0.06
28273 H 138.62029982491043 150.01498209171677 184.6067202827072 H 0.0 **** 0.06
28274 H 139.15174959709776 148.62427470606877 183.6299918331161 H 0.0 **** 0.06
28275 H 137.57207844062515 149.38105910497796 183.31419331896808 H 0.0 **** 0.06
28276 C 124.06388956671589 68.00816847525331 86.05682465825959 C 0.0 **** -0.24
28277 H 123.54167327610082 68.0385858211212 87.01306484374521 H 0.0 **** 0.06
28278 H 124.54853289996345 67.03863670475491 85.93972486897195 H 0.0 **** 0.06
28279 H 124.816778399197 68.79629202223025 86.02813561537846 H 0.0 **** 0.06
28280 H 123.34985578866156 68.15780038906901 85.24760194972163 H 0.0 **** 0.06
28281 C 38.05023755573541 40.67905886893237 121.10929846845933 C 0.0 **** -0.24
28282 H 38.2214518771693 39.75004292496038 120.56473312267993 H 0.0 **** 0.06
28283 H 37.84481965525424 41.481998134283344 120.4021673937073 H 0.0 **** 0.06
28284 H 38.93741244391862 40.925606670748266 121.69339545138341 H 0.0 **** 0.06
28285 H 37.19766749497721 40.5557166339878 121.77816122083733 H 0.0 **** 0.06
28286 C 53.24521247065883 180.77515470451397 120.24443917549685 C 0.0 **** -0.24
28287 H 52.29471407275645 180.4021256211206 119.86250662797995 H 0.0 **** 0.06
28288 H 53.19998217399757 180.83749928493347 121.33219869062945 H 0.0 **** 0.06
28289 H 53.439778651300344 181.7650345476387 119.8313504838914 H 0.0 **** 0.06
28290 H 54.04637498458084 180.09595936436304 119.95170089948645 H 0.0 **** 0.06
28291 C 60.2798242217051 94.04205494760981 2.988506410587462 C 0.0 **** -0.24
28292 H 61.22494642774224 94.18062520569464 2.4633610347661232 H 0.0 **** 0.06
28293 H 60.005831234637284 94.96851134910088 3.4941592228265037 H 0.0 **** 0.06
28294 H 60.38670128571657 93.24519437985532 3.724280753606024 H 0.0 **** 0.06
28295 H 59.502995520680656 93.77459343297727 2.2725665685008707 H 0.0 **** 0.06
28296 C 20.191362423731185 78.47435709882359 98.96044944425455 C 0.0 **** -0.24
28297 H 20.528099056386033 77.44646300748167 99.09680761797165 H 0.0 **** 0.06
28298 H 20.03348093202321 78.66628467658495 97.89916314808892 H 0.0 **** 0.06
28299 H 20.948535941281932 79.15879853672777 99.34411149219869 H 0.0 **** 0.06
28300 H 19.257379245858118 78.62513868986008 99.50120232953464 H 0.0 **** 0.06
28301 C 45.79690196516049 66.57731995536938 122.06547307660817 C 0.0 **** -0.24
28302 H 46.397064610091064 66.82876247257524 121.19054631196236 H 0.0 **** 0.06
28303 H 46.22570034746346 65.70721946207054 122.56271390792087 H 0.0 **** 0.06
28304 H 44.77708588509876 66.35220050392319 121.75364659500535 H 0.0 **** 0.06
28305 H 45.787411708230536 67.42221105790045 122.75418515498193 H 0.0 **** 0.06
28306 C 68.28410040724823 110.627099308683 169.86818328302178 C 0.0 **** -0.24
28307 H 68.57722760602165 109.89043041578032 169.12036328843809 H 0.0 **** 0.06
28308 H 67.29860120477947 110.37379709383072 170.25948199574714 H 0.0 **** 0.06
28309 H 68.25059216467146 111.61555846727441 169.40969657691568 H 0.0 **** 0.06
28310 H 69.010049123987 110.62734999912982 170.68134609841417 H 0.0 **** 0.06
28311 C 63.160520497952234 52.649540524528575 107.64079360698422 C 0.0 **** -0.24
28312 H 62.965309716244064 52.329493659777185 108.66393440854124 H 0.0 **** 0.06
28313 H 63.883121759510175 53.46555777054117 107.64732305306954 H 0.0 **** 0.06
28314 H 62.231538748392154 52.98938012719114 107.18280635788862 H 0.0 **** 0.06
28315 H 63.56291311910377 51.81272092620844 107.06969247102289 H 0.0 **** 0.06
28316 C 164.8679655290471 128.88416180270832 57.306802883662044 C 0.0 **** -0.24
28317 H 165.63091424698797 128.87604168624426 58.08578792991278 H 0.0 **** 0.06
28318 H 163.99038280178792 129.4243736790457 57.66407600933252 H 0.0 **** 0.06
28319 H 164.58903609734585 127.85977698014192 57.06206129544694 H 0.0 **** 0.06
28320 H 165.261038452978 129.37741668198896 56.41857789507344 H 0.0 **** 0.06
28321 C 169.99211462996223 48.24724187157841 128.18690456167798 C 0.0 **** -0.24
28322 H 170.4094848891533 47.26807969028776 128.42354326045728 H 0.0 **** 0.06
28323 H 168.94887431607083 48.134395051200755 127.89197134035253 H 0.0 **** 0.06
28324 H 170.55590450668183 48.693476325126056 127.36642165395567 H 0.0 **** 0.06
28325 H 170.05507464537087 48.891665504156265 129.06335796289795 H 0.0 **** 0.06
28326 C 4.49010890135645 60.5689202893914 140.1851929555508 C 0.0 **** -0.24
28327 H 5.097480829309603 60.75496301232542 141.0714089727316 H 0.0 **** 0.06
28328 H 5.122577265128939 60.17596714702594 139.3880913297192 H 0.0 **** 0.06
28329 H 4.029506964548062 61.500653551901806 139.8580579273144 H 0.0 **** 0.06
28330 H 3.7129910843878235 59.84290912244158 140.42291134506144 H 0.0 **** 0.06
28331 C 133.91356940671335 107.95981596806364 42.24736748430644 C 0.0 **** -0.24
28332 H 134.92253239456386 107.56273656862275 42.13527820570411 H 0.0 **** 0.06
28333 H 133.7313315964626 108.70918510531958 41.47695938167905 H 0.0 **** 0.06
28334 H 133.81040317156237 108.4161187831598 43.23127439203438 H 0.0 **** 0.06
28335 H 133.19127977563994 107.1499020534943 42.144676171720164 H 0.0 **** 0.06
28336 C 56.852846827926584 36.74231187571027 85.80389859450833 C 0.0 **** -0.24
28337 H 55.95630110750379 36.1865004894226 86.07673886657614 H 0.0 **** 0.06
28338 H 57.440146159467176 36.15952042021755 85.09484926025516 H 0.0 **** 0.06
28339 H 57.44715430418751 36.93348334183432 86.69840488380737 H 0.0 **** 0.06
28340 H 56.56799180856048 37.69089931479087 85.3487031935017 H 0.0 **** 0.06
28341 C 142.4194460648884 158.945858565689 19.32133850465121 C 0.0 **** -0.24
28342 H 142.9187174753884 159.390685278177 18.461514350147738 H 0.0 **** 0.06
28343 H 141.34544467243057 158.9087353191661 19.13921427529766 H 0.0 **** 0.06
28344 H 142.61702202727196 159.54851768980157 20.207663543858644 H 0.0 **** 0.06
28345 H 142.79699358198786 157.93510486369465 19.478262710783184 H 0.0 **** 0.06
28346 C 153.45349567831022 66.87658130311195 63.08549578606761 C 0.0 **** -0.24
28347 H 153.00267317625713 67.22907724132375 62.158707241081345 H 0.0 **** 0.06
28348 H 154.5383592152545 66.94552728111444 63.010763591408136 H 0.0 **** 0.06
28349 H 153.16607698684584 65.83907336908493 63.25883121220656 H 0.0 **** 0.06
28350 H 153.1066500490704 67.49292568009145 63.91588853772652 H 0.0 **** 0.06
28351 C 23.69210480531487 169.386160484077 71.91836754204394 C 0.0 **** -0.24
28352 H 23.36156617922171 169.69721482695945 72.9092125187205 H 0.0 **** 0.06
28353 H 23.322267721799022 168.38240231146628 71.70994149489832 H 0.0 **** 0.06
28354 H 24.782061230080842 169.38671913169068 71.88261740298321 H 0.0 **** 0.06
28355 H 23.304131722593496 170.07894908035448 71.17165862287231 H 0.0 **** 0.06
28356 C 183.24806131735494 148.0451840944316 5.843685205449987 C 0.0 **** -0.24
28357 H 183.9282290459 148.87013616026033 6.054652745502409 H 0.0 **** 0.06
28358 H 183.71555410694668 147.36103204914147 5.135127622892867 H 0.0 **** 0.06
28359 H 182.32525452051584 148.43666526521943 5.416142856678533 H 0.0 **** 0.06
28360 H 183.02298240614047 147.51408908547944 6.768081179517026 H 0.0 **** 0.06
28361 C 103.21672073288333 121.61298499118196 3.5685461869205 C 0.0 **** -0.24
28362 H 103.44003364866667 120.73621416488838 4.175942769721772 H 0.0 **** 0.06
28363 H 102.47809465662688 122.22980439636034 4.079980143230955 H 0.0 **** 0.06
28364 H 102.82127260229298 121.29599731414235 2.6036944136627014 H 0.0 **** 0.06
28365 H 104.1286842646157 122.19018807763184 3.415263823955918 H 0.0 **** 0.06
28366 C 39.2076783069474 18.50084869263415 47.943594265047295 C 0.0 **** -0.24
28367 H 38.703218604910774 18.618036659330187 48.902482028152804 H 0.0 **** 0.06
28368 H 39.96296100473212 19.27908275697041 47.83368906650506 H 0.0 **** 0.06
28369 H 38.479277464752215 18.58517829040136 47.13810369681079 H 0.0 **** 0.06
28370 H 39.68488279064309 17.521631356091746 47.901993096819524 H 0.0 **** 0.06
28371 C 106.54554755271728 146.8632545762552 67.64276161738368 C 0.0 **** -0.24
28372 H 106.19669387180166 146.9919323606235 66.61880484740318 H 0.0 **** 0.06
28373 H 107.60494693639463 146.60614790761736 67.63579890572191 H 0.0 **** 0.06
28374 H 105.98043426460792 146.06292692007372 68.1201188932363 H 0.0 **** 0.06
28375 H 106.39991953770844 147.79128123328462 68.19566881522955 H 0.0 **** 0.06
28376 C 17.17364120418074 177.3095955098392 104.59159023276032 C 0.0 **** -0.24
28377 H 17.845245783474923 176.4744942933616 104.39073051164286 H 0.0 **** 0.06
28378 H 17.284318132281896 177.62402071613718 105.62981265262005 H 0.0 **** 0.06
28379 H 16.14486447729007 176.99860030437912 104.41343647787681 H 0.0 **** 0.06
28380 H 17.422103784912053 178.14131878621623 103.93131973201565 H 0.0 **** 0.06
28381 C 167.80730802730017 178.6461419114645 44.008365989682915 C 0.0 **** -0.24
28382 H 168.46926095417962 178.2042207346665 43.26306646586221 H 0.0 **** 0.06
28383 H 167.81589331156977 179.73093385677043 43.903938584882866 H 0.0 **** 0.06
28384 H 168.1509114160342 178.3727946448679 45.00650293919284 H 0.0 **** 0.06
28385 H 166.7939248845408 178.2739323429994 43.85846934967341 H 0.0 **** 0.06
28386 C 98.7286286280953 21.563555936615415 87.84619207882776 C 0.0 **** -0.24
28387 H 98.3175018666658 22.251818075010533 87.106648695059 H 0.0 **** 0.06
28388 H 99.54621970149952 20.998136656613553 87.40104244838619 H 0.0 **** 0.06
28389 H 97.94843251766224 20.87661991325797 88.17588636380538 H 0.0 **** 0.06
28390 H 99.09940450232233 22.12908500844759 88.70074252771315 H 0.0 **** 0.06
28391 C 54.20156050510337 70.9721745093362 113.53177495255734 C 0.0 **** -0.24
28392 H 53.24021271059337 70.627094059266 113.15087041001776 H 0.0 **** 0.06
28393 H 54.66458731999404 71.63578940650974 112.8006690576065 H 0.0 **** 0.06
28394 H 54.85159956970301 70.1143282322371 113.70695305677263 H 0.0 **** 0.06
28395 H 54.04959457311821 71.51043769173498 114.46769133850346 H 0.0 **** 0.06
28396 C 71.22987380852015 160.53573874007657 185.46769133538416 C 0.0 **** -0.24
28397 H 71.70808728950514 161.50622632488208 185.6071263521075 H 0.0 **** 0.06
28398 H 71.48063801016583 159.8833951423827 186.30458829855726 H 0.0 **** 0.06
28399 H 71.58317207831855 160.0881865691402 184.5383987199877 H 0.0 **** 0.06
28400 H 70.14897001396578 160.66775381556317 185.42008494260898 H 0.0 **** 0.06
28401 C 102.76904162726318 75.9903417093268 174.626386333692 C 0.0 **** -0.24
28402 H 101.80426381373648 76.0422899210779 174.12324472234673 H 0.0 **** 0.06
28403 H 102.66727489416668 75.41715688863627 175.5483934262028 H 0.0 **** 0.06
28404 H 103.11047427337094 76.99828527280943 174.86096440314236 H 0.0 **** 0.06
28405 H 103.49302360405126 75.50426579059098 173.97351297217708 H 0.0 **** 0.06
28406 C 110.33810090926353 108.10242483415671 95.37831701672313 C 0.0 **** -0.24
28407 H 109.30032558056074 108.01484626231384 95.69996235579156 H 0.0 **** 0.06
28408 H 110.74940106964466 107.1079983308908 95.20261701339645 H 0.0 **** 0.06
28409 H 110.91788478612348 108.60441928226835 96.1535328694164 H 0.0 **** 0.06
28410 H 110.38488063478478 108.6838382062496 94.4569991916271 H 0.0 **** 0.06
28411 C 106.68387658755819 60.0533744841168 73.4361848944385 C 0.0 **** -0.24
28412 H 106.63086462800516 61.097276955433074 73.74399604707196 H 0.0 **** 0.06
28413 H 106.50378925297758 59.98168770851811 72.36408420262808 H 0.0 **** 0.06
28414 H 105.92819715117736 59.47821075688236 73.97086015161574 H 0.0 **** 0.06
28415 H 107.67285385762023 59.65707905230542 73.66642228078541 H 0.0 **** 0.06
28416 C 67.49515142155354 164.60801478559355 130.0207350168634 C 0.0 **** -0.24
28417 H 67.39214707965715 163.78024570023183 130.72232521674317 H 0.0 **** 0.06
28418 H 67.47828060096566 164.2233808892538 129.00126726818826 H 0.0 **** 0.06
28419 H 68.43917275952475 165.1210455608867 130.2017004172601 H 0.0 **** 0.06
28420 H 66.66944736315645 165.30643516367772 130.15980754055323 H 0.0 **** 0.06
28421 C 177.46506300720876 115.40920925402973 61.73820544221951 C 0.0 **** -0.24
28422 H 178.29481419851578 115.6286829642814 61.06662848936139 H 0.0 **** 0.06
28423 H 177.55274632976 116.02089630344018 62.636195394861716 H 0.0 **** 0.06
28424 H 177.48869865155672 114.35472620291803 62.012594229444744 H 0.0 **** 0.06
28425 H 176.52304821306188 115.63275585716356 61.236375357277694 H 0.0 **** 0.06
28426 C 37.47501369665787 20.18328036368871 24.810953451761847 C 0.0 **** -0.24
28427 H 37.387860543398006 21.175760971468492 25.25386535174127 H 0.0 **** 0.06
28428 H 36.51832036110986 19.66625081694363 24.888009814552092 H 0.0 **** 0.06
28429 H 38.23964163428107 19.615593108021756 25.340378269905855 H 0.0 **** 0.06
28430 H 37.754680296368065 20.27770728609056 23.761550993546123 H 0.0 **** 0.06
28431 C 45.72830669683975 177.3787731549531 165.71719417188578 C 0.0 **** -0.24
28432 H 45.206687724851065 176.49435820229172 166.081004790915 H 0.0 **** 0.06
28433 H 45.1067865279004 178.2593986318815 165.87856890811594 H 0.0 **** 0.06
28434 H 45.931588466260735 177.268108344105 164.65170639477054 H 0.0 **** 0.06
28435 H 46.668961888741364 177.4926589128003 166.25606819189287 H 0.0 **** 0.06
28436 C 19.28510941158072 46.76465007517031 184.29536395311993 C 0.0 **** -0.24
28437 H 18.41062857814177 46.17160689598502 184.03036322346765 H 0.0 **** 0.06
28438 H 20.186897881643915 46.17110168978904 184.1426280660808 H 0.0 **** 0.06
28439 H 19.21848576408439 47.06317678391359 185.3416428169023 H 0.0 **** 0.06
28440 H 19.324708502588123 47.65389116064631 183.66608931346266 H 0.0 **** 0.06
28441 C 149.27454347338556 142.09742003100473 3.396750555485994 C 0.0 **** -0.24
28442 H 149.2077680043161 141.0647762870343 3.7394855877975033 H 0.0 **** 0.06
28443 H 149.81590130348764 142.69086155708595 4.1343474965729 H 0.0 **** 0.06
28444 H 148.27098388804797 142.50223892564844 3.2691411339038154 H 0.0 **** 0.06
28445 H 149.80318245038546 142.13013144291568 2.4437273786622313 H 0.0 **** 0.06
28446 C 109.29289087332212 16.68807200707994 54.89725783709072 C 0.0 **** -0.24
28447 H 110.30678065992616 16.419714748791336 54.600611173647906 H 0.0 **** 0.06
28448 H 109.26421712876298 16.866044074800442 55.972306731689926 H 0.0 **** 0.06
28449 H 108.61302323041777 15.873564139905994 54.64566231555125 H 0.0 **** 0.06
28450 H 108.98754247418164 17.59296506482201 54.3704511274738 H 0.0 **** 0.06
28451 C 86.54318572455877 176.41165054872906 8.236515551534978 C 0.0 **** -0.24
28452 H 85.85319929678674 176.6440531141384 7.424900397761689 H 0.0 **** 0.06
28453 H 85.99831315297091 175.93201708722395 9.050440006763552 H 0.0 **** 0.06
28454 H 87.00139601792453 177.33235667255894 8.598752963816423 H 0.0 **** 0.06
28455 H 87.31896670583158 175.73925881536616 7.871698387829838 H 0.0 **** 0.06
28456 C 163.20609044965116 178.73480426718183 93.3900366970539 C 0.0 **** -0.24
28457 H 164.21600720547866 178.71355284244737 93.79838809297591 H 0.0 **** 0.06
28458 H 162.6363283505602 179.53139476858817 93.87025344866889 H 0.0 **** 0.06
28459 H 162.71900625953583 177.77736274160347 93.57381392796599 H 0.0 **** 0.06
28460 H 163.25217259569692 178.9182279217914 92.31645178278121 H 0.0 **** 0.06
28461 C 9.658144366155952 125.34358012906364 136.42479667746943 C 0.0 **** -0.24
28462 H 8.854217795033193 126.07869166641046 136.45314176534237 H 0.0 **** 0.06
28463 H 9.914272515473584 125.04567379540526 137.44147437850455 H 0.0 **** 0.06
28464 H 10.532154097953693 125.78068726091738 135.94243405915722 H 0.0 **** 0.06
28465 H 9.33148020798459 124.46977883206245 135.8614058955872 H 0.0 **** 0.06
28466 C 96.75538116313247 139.6483496975569 160.34867453323892 C 0.0 **** -0.24
28467 H 96.3487435527209 138.65150054133096 160.52028160438883 H 0.0 **** 0.06
28468 H 97.61787828684523 139.80457368469098 160.9969855336969 H 0.0 **** 0.06
28469 H 95.99237277353596 140.39416448345082 160.57130620868108 H 0.0 **** 0.06
28470 H 97.06200027829276 139.74029833812443 159.30685280040058 H 0.0 **** 0.06
28471 C 99.12777842994171 134.35494423834012 59.79047132058308 C 0.0 **** -0.24
28472 H 98.52754798239619 133.90934911847472 58.99774265252313 H 0.0 **** 0.06
28473 H 99.26585717776544 133.6300844049876 60.59378999133911 H 0.0 **** 0.06
28474 H 98.61767759615805 135.23631188790608 60.18023482489244 H 0.0 **** 0.06
28475 H 100.09961561442532 134.64471353826735 59.39165483680952 H 0.0 **** 0.06
28476 C 77.16445869917183 173.68131963205494 151.8522574517936 C 0.0 **** -0.24
28477 H 77.08193107765042 172.6473007736573 152.1888901680726 H 0.0 **** 0.06
28478 H 77.52759920887799 173.70045895096928 150.8248135290535 H 0.0 **** 0.06
28479 H 77.86138832146422 174.217969572447 152.49505390196157 H 0.0 **** 0.06
28480 H 76.18553762932474 174.1569009801173 151.8999779922051 H 0.0 **** 0.06
28481 C 158.1699175241628 69.9432979252296 111.98412474246699 C 0.0 **** -0.24
28482 H 157.35143150012726 70.28816148630841 112.61652345580838 H 0.0 **** 0.06
28483 H 157.79132037894192 69.21719635601714 111.26380182271431 H 0.0 **** 0.06
28484 H 158.93489418525013 69.47530155560774 112.60367979906404 H 0.0 **** 0.06
28485 H 158.60047686852505 70.79196797680522 111.45303045007104 H 0.0 **** 0.06
28486 C 74.30178551141113 129.87055202975017 82.95862000005407 C 0.0 **** -0.24
28487 H 74.42263582215037 130.13721006433377 84.00878716274062 H 0.0 **** 0.06
28488 H 74.06263297387821 128.81051194679338 82.87854235334493 H 0.0 **** 0.06
28489 H 75.22842803795331 130.0769100645815 82.4231787344952 H 0.0 **** 0.06
28490 H 73.4932643851019 130.46014786794439 82.52605820394324 H 0.0 **** 0.06
28491 C 109.06656939030704 36.76795189275988 157.03031795337571 C 0.0 **** -0.24
28492 H 109.85689590263591 36.58668485520572 156.30214309896377 H 0.0 **** 0.06
28493 H 108.40576538076043 35.901206767830786 157.0710776011981 H 0.0 **** 0.06
28494 H 108.49533516291596 37.6474860871769 156.73419904396005 H 0.0 **** 0.06
28495 H 109.50889021293888 36.93475022108997 158.01217637303458 H 0.0 **** 0.06
28496 C 91.44563581825408 75.28274197729016 61.592606109332706 C 0.0 **** -0.24
28497 H 91.6411710248406 75.58430860940658 62.62177029393192 H 0.0 **** 0.06
28498 H 92.33053830076686 74.79533317482849 61.18307268607725 H 0.0 **** 0.06
28499 H 91.20668590700548 76.16340955329689 60.99645770264186 H 0.0 **** 0.06
28500 H 90.6048817667526 74.58968310197216 61.57028183056899 H 0.0 **** 0.06
28501 C 102.2955497741288 152.10281130849177 51.98448364889313 C 0.0 **** -0.24
28502 H 101.85087953875723 153.0331300452665 52.33720844468576 H 0.0 **** 0.06
28503 H 101.64732251205407 151.65134666179932 51.23420141929532 H 0.0 **** 0.06
28504 H 102.41479808999458 151.41645630065688 52.822560014780834 H 0.0 **** 0.06
28505 H 103.27110264321561 152.31130367318752 51.544591717936456 H 0.0 **** 0.06
28506 C 165.28191935314118 69.59404802369784 71.35214690584814 C 0.0 **** -0.24
28507 H 165.39141833055393 70.49971376031993 71.94916443007008 H 0.0 **** 0.06
28508 H 164.39453902136898 69.677976426431 70.72512575637688 H 0.0 **** 0.06
28509 H 165.1804718747135 68.73332517215664 72.01344710534931 H 0.0 **** 0.06
28510 H 166.16191639545562 69.46584405590852 70.72190305636673 H 0.0 **** 0.06
28511 C 117.66537921492194 126.59349791104283 29.15260326621879 C 0.0 **** -0.24
28512 H 117.58724707937664 127.67577998966199 29.252844074899613 H 0.0 **** 0.06
28513 H 118.26662472806406 126.35292111368754 28.275712733785483 H 0.0 **** 0.06
28514 H 116.66806233137227 126.16729583466808 29.037307023051184 H 0.0 **** 0.06
28515 H 118.13780632556534 126.17911209025318 30.042652902419206 H 0.0 **** 0.06
28516 C 4.626924848587834 73.5686714947432 94.73206462248221 C 0.0 **** -0.24
28517 H 5.0951282148262464 74.54829660685938 94.64209472248673 H 0.0 **** 0.06
28518 H 4.690038710185547 73.04718159938484 93.77692625776335 H 0.0 **** 0.06
28519 H 3.580895862026182 73.69021589145508 95.01152956863795 H 0.0 **** 0.06
28520 H 5.143233801275926 72.98856586151405 95.49719068602111 H 0.0 **** 0.06
28521 C 151.02354312854237 63.197822447710664 138.68032544608627 C 0.0 **** -0.24
28522 H 150.7711606035335 62.61353807161018 139.56570571123717 H 0.0 **** 0.06
28523 H 151.5895208408901 62.57851516531436 137.98508803289508 H 0.0 **** 0.06
28524 H 151.62473916993738 64.05921387258829 138.9737509587486 H 0.0 **** 0.06
28525 H 150.10758777386917 63.540881617885304 138.19873374205235 H 0.0 **** 0.06
28526 C 39.15913204057529 78.35996173524245 137.05438308583518 C 0.0 **** -0.24
28527 H 39.80861523279265 77.52841393678682 137.32587927025048 H 0.0 **** 0.06
28528 H 38.51515694287224 78.06218692684388 136.22520839404626 H 0.0 **** 0.06
28529 H 39.7666283661672 79.21351133890141 136.75350162685396 H 0.0 **** 0.06
28530 H 38.54420659547634 78.63556438464934 137.91143282344746 H 0.0 **** 0.06
28531 C 140.0135533636746 94.99963054457196 145.3864063484421 C 0.0 **** -0.24
28532 H 141.03938266055405 95.19155586893878 145.07063537797322 H 0.0 **** 0.06
28533 H 139.4386618020389 95.92374132945928 145.33164963700483 H 0.0 **** 0.06
28534 H 140.01271830282735 94.62982582326133 146.41120052570423 H 0.0 **** 0.06
28535 H 139.56582425309523 94.25297689044929 144.72986210025843 H 0.0 **** 0.06
28536 C 69.69866518161032 173.3556816482068 178.29078266755195 C 0.0 **** -0.24
28537 H 69.7802287931019 173.3705233367831 177.20439395242843 H 0.0 **** 0.06
28538 H 68.85761375820366 173.97617443985578 178.5997123599722 H 0.0 **** 0.06
28539 H 70.6174360427644 173.74406373298103 178.73007507653693 H 0.0 **** 0.06
28540 H 69.53938213237141 172.33196508320708 178.6289492812702 H 0.0 **** 0.06
28541 C 64.79171566623387 43.08447742567793 51.568883651485976 C 0.0 **** -0.24
28542 H 65.11729564294006 42.39106523962349 50.79392457870625 H 0.0 **** 0.06
28543 H 63.78117336545388 43.42917108845461 51.34679148400886 H 0.0 **** 0.06
28544 H 65.46877114722366 43.93863919585465 51.59863139952057 H 0.0 **** 0.06
28545 H 64.7999026881182 42.58042712865924 52.53519655569306 H 0.0 **** 0.06
28546 C 168.55211252677395 46.11993290109466 176.11574332195568 C 0.0 **** -0.24
28547 H 167.60589327571654 45.60616206074964 176.2827313241699 H 0.0 **** 0.06
28548 H 169.3523954832985 45.58297940698817 176.6248714933938 H 0.0 **** 0.06
28549 H 168.48901614961005 47.13470233926297 176.5084011796776 H 0.0 **** 0.06
28550 H 168.7612937869095 46.15745911996724 175.04625588961324 H 0.0 **** 0.06
28551 C 109.8708565707846 111.6415271689316 77.50779159648216 C 0.0 **** -0.24
28552 H 110.28812400948372 110.73163895845461 77.93816546966056 H 0.0 **** 0.06
28553 H 110.68012674947666 112.3174124632644 77.23218281568248 H 0.0 **** 0.06
28554 H 109.22498098603795 112.1270235723563 78.23991204647857 H 0.0 **** 0.06
28555 H 109.2894286276504 111.39067477425995 76.62085700205469 H 0.0 **** 0.06
28556 C 72.94608412187515 91.94771229558016 65.86492016589716 C 0.0 **** -0.24
28557 H 73.901952390445 91.69151284624154 66.32168384100414 H 0.0 **** 0.06
28558 H 73.11907131085655 92.39042433082504 64.88318451431321 H 0.0 **** 0.06
28559 H 72.42196038690064 92.66347924249185 66.49829711025914 H 0.0 **** 0.06
28560 H 72.34175875028879 91.04754357447676 65.75713121453238 H 0.0 **** 0.06
28561 C 124.87986623259428 176.6862273412933 15.299368309783574 C 0.0 **** -0.24
28562 H 124.3219777581204 176.78632276603327 16.231585437510887 H 0.0 **** 0.06
28563 H 124.74402642250732 175.68025927238057 14.902121337871733 H 0.0 **** 0.06
28564 H 125.9381151884021 176.86373249016475 15.489232515726087 H 0.0 **** 0.06
28565 H 124.51328061381764 177.41550255141055 14.577346840985854 H 0.0 **** 0.06
28566 C 7.173059530128306 100.27319008520742 21.76581711074823 C 0.0 **** -0.24
28567 H 6.0880241887228905 100.37232776775978 21.723764635166248 H 0.0 **** 0.06
28568 H 7.444279206203355 99.22081236290099 21.688284184663928 H 0.0 **** 0.06
28569 H 7.537606245718514 100.67403839085905 22.71172762270305 H 0.0 **** 0.06
28570 H 7.620368396233005 100.8265557300628 20.93994992355607 H 0.0 **** 0.06
28571 C 123.18000526484697 171.91000607434717 183.5588131598721 C 0.0 **** -0.24
28572 H 122.94555494051532 171.95320751719197 182.49465994135363 H 0.0 **** 0.06
28573 H 123.63963392521187 170.94949198908483 183.79043685212253 H 0.0 **** 0.06
28574 H 122.26377661773229 172.02424915507987 184.13724805119347 H 0.0 **** 0.06
28575 H 123.87064360988681 172.71486037928034 183.8101427907713 H 0.0 **** 0.06
28576 C 168.99887092063614 170.77514739141336 108.11048867207144 C 0.0 **** -0.24
28577 H 169.20772662353073 170.38985467886963 107.11266745824172 H 0.0 **** 0.06
28578 H 169.91690208355377 170.77082864887217 108.70023739603552 H 0.0 **** 0.06
28579 H 168.2531662985385 170.14449304246156 108.59435855924117 H 0.0 **** 0.06
28580 H 168.62033782571552 171.79371013263992 108.03497734273482 H 0.0 **** 0.06
28581 C 107.77567403800663 142.32110675049353 43.24247603773949 C 0.0 **** -0.24
28582 H 108.84217878193198 142.51978570855005 43.348954530991136 H 0.0 **** 0.06
28583 H 107.63295116963724 141.34936711074715 42.76778912522627 H 0.0 **** 0.06
28584 H 107.32117775749407 143.09675286305077 42.627347949785346 H 0.0 **** 0.06
28585 H 107.30794943489428 142.3167666756667 44.227388846476515 H 0.0 **** 0.06
28586 C 94.78096260148489 104.09874913209238 20.883339709665933 C 0.0 **** -0.24
28587 H 94.07942615201036 103.78674161690957 21.657064651098324 H 0.0 **** 0.06
28588 H 94.46601614918556 103.69279277901036 19.921884800764445 H 0.0 **** 0.06
28589 H 95.77678885172243 103.72885050637315 21.125794713571878 H 0.0 **** 0.06
28590 H 94.80104819885365 105.1875802767536 20.829472380891104 H 0.0 **** 0.06
28591 C 7.815712276558941 76.6184195262842 31.891133784631847 C 0.0 **** -0.24
28592 H 7.312397078578186 76.29460945422473 30.979696879756688 H 0.0 **** 0.06
28593 H 8.611967726657838 75.9161267894906 32.135270021341285 H 0.0 **** 0.06
28594 H 7.096921721427009 76.65384786795539 32.7095831267315 H 0.0 **** 0.06
28595 H 8.24005618213414 77.61033776370503 31.73679384944893 H 0.0 **** 0.06
28596 C 90.7479340234757 128.93900204566967 37.63774186696227 C 0.0 **** -0.24
28597 H 91.21772148581249 128.9358142322293 36.654398625398585 H 0.0 **** 0.06
28598 H 90.28868911242319 129.9105691561591 37.81850085120141 H 0.0 **** 0.06
28599 H 91.50197413766841 128.74545001514144 38.4009132041908 H 0.0 **** 0.06
28600 H 89.98398899941026 128.16310186046258 37.67781984972669 H 0.0 **** 0.06
28601 C 31.49435135485065 116.29292500705708 66.25117569324794 C 0.0 **** -0.24
28602 H 32.05862389924813 117.14168496339812 66.63884877681824 H 0.0 **** 0.06
28603 H 32.09222883744789 115.76966254434404 65.50538131238397 H 0.0 **** 0.06
28604 H 30.571628182643465 116.64983138498326 65.79214390470199 H 0.0 **** 0.06
28605 H 31.25427416286813 115.61327115692455 67.06844978088009 H 0.0 **** 0.06
28606 C 179.99528485212517 77.9436476553711 12.80540562077416 C 0.0 **** -0.24
28607 H 179.82856010899644 77.0153814299295 13.352967551104179 H 0.0 **** 0.06
28608 H 180.94832294803302 77.88854188536526 12.279500591372916 H 0.0 **** 0.06
28609 H 180.0137008530569 78.77887039947056 13.50598338074824 H 0.0 **** 0.06
28610 H 179.189588745354 78.09019436731079 12.085909121267235 H 0.0 **** 0.06
28611 C 18.75727692024614 178.42814942272724 41.57838391923643 C 0.0 **** -0.24
28612 H 19.765920574594077 178.84015303874355 41.61304466510447 H 0.0 **** 0.06
28613 H 18.032269602011752 179.23119317818058 41.71214671713739 H 0.0 **** 0.06
28614 H 18.638037829584476 177.69373541276366 42.375747384537064 H 0.0 **** 0.06
28615 H 18.594322743162593 177.94655844817973 40.61401135511892 H 0.0 **** 0.06
28616 C 62.830712795654236 33.361994786454844 139.41480674899623 C 0.0 **** -0.24
28617 H 62.89861936554051 32.34835980210974 139.81131552414524 H 0.0 **** 0.06
28618 H 62.64634982972275 34.05969398715824 140.23178991200962 H 0.0 **** 0.06
28619 H 62.01233859159031 33.41681349454515 138.69667727374735 H 0.0 **** 0.06
28620 H 63.766480699786484 33.620870185117255 138.91975492121247 H 0.0 **** 0.06
28621 C 7.924836347384286 89.17694168760055 128.09823870635574 C 0.0 **** -0.24
28622 H 8.411711326585305 88.86412557267444 127.1743885001719 H 0.0 **** 0.06
28623 H 6.852317292509184 88.99859683006106 128.02161397920747 H 0.0 **** 0.06
28624 H 8.106827102290254 90.23866045501269 128.26330528450774 H 0.0 **** 0.06
28625 H 8.329944797831331 88.60395857419336 128.9336720755931 H 0.0 **** 0.06
28626 C 0.8943681394146097 114.34217607902313 175.77098977175882 C 0.0 **** -0.24
28627 H 0.5882980769363826 113.86651680619143 176.70343964610095 H 0.0 **** 0.06
28628 H 0.12387270680750362 114.18680090636023 175.01492447013106 H 0.0 **** 0.06
28629 H 1.8323486221926828 113.90437204697658 175.43027054202855 H 0.0 **** 0.06
28630 H 1.030920791235019 115.41111970111776 175.9362510241823 H 0.0 **** 0.06
28631 C 144.6342667553551 5.072757819026215 59.89785827000681 C 0.0 **** -0.24
28632 H 145.1213568864003 4.924661478371462 60.86091901891365 H 0.0 **** 0.06
28633 H 143.5843230155317 5.32135087217312 60.05659714961503 H 0.0 **** 0.06
28634 H 144.70554698784187 4.1570393284953155 59.309714432856026 H 0.0 **** 0.06
28635 H 145.1240844616928 5.886719387545703 59.36304937705519 H 0.0 **** 0.06
28636 C 122.68842694354436 152.29214943222934 31.21947753437955 C 0.0 **** -0.24
28637 H 122.07752088373411 152.9705224215947 30.62375676003056 H 0.0 **** 0.06
28638 H 123.1002504248828 151.5141623503955 30.575924190273497 H 0.0 **** 0.06
28639 H 122.07320142542329 151.8343408079877 31.994825338367434 H 0.0 **** 0.06
28640 H 123.502735040137 152.84957214893956 31.683403848846666 H 0.0 **** 0.06
28641 C 104.84185149144768 101.38919918623758 148.99512546140966 C 0.0 **** -0.24
28642 H 103.76863423179027 101.39261044241105 149.18681127519693 H 0.0 **** 0.06
28643 H 105.02272077335 101.13981308723977 147.9484333871726 H 0.0 **** 0.06
28644 H 105.32218356731163 100.64740172033775 149.63284794735733 H 0.0 **** 0.06
28645 H 105.2529143088732 102.3752690504967 149.2099205495121 H 0.0 **** 0.06
28646 C 47.240979179413074 38.03449767978981 176.91673332144688 C 0.0 **** -0.24
28647 H 46.84420681274284 38.057422583462255 175.90158776032652 H 0.0 **** 0.06
28648 H 47.24549662357377 39.04316922423533 177.32759172212624 H 0.0 **** 0.06
28649 H 48.258023340915 37.64302295284378 176.89999802262162 H 0.0 **** 0.06
28650 H 46.614334210425554 37.39217330094161 177.53691626431538 H 0.0 **** 0.06
28651 C 35.96991309993683 4.375532356452574 151.06442595253134 C 0.0 **** -0.24
28652 H 35.15785029046151 3.873280827353419 151.59035442978083 H 0.0 **** 0.06
28653 H 36.42079058975739 5.120352245428116 151.7195169102415 H 0.0 **** 0.06
28654 H 35.57678356229587 4.865593203769052 150.17335642048494 H 0.0 **** 0.06
28655 H 36.72243006668887 3.642147673653973 150.7740322646897 H 0.0 **** 0.06
28656 C 183.5413667525504 143.20878412956898 131.81273327803842 C 0.0 **** -0.24
28657 H 183.94446034348928 143.12393283016502 132.8215103384997 H 0.0 **** 0.06
28658 H 182.54232912640913 143.6436381859774 131.85561867094623 H 0.0 **** 0.06
28659 H 183.48797931399656 142.21959131301492 131.3579083455868 H 0.0 **** 0.06
28660 H 184.19054295703344 143.84950756751104 131.2151053671514 H 0.0 **** 0.06
28661 C 118.53553031076115 58.327106754042404 153.20104236608515 C 0.0 **** -0.24
28662 H 118.75104177713592 59.36661046327133 152.95257259809432 H 0.0 **** 0.06
28663 H 119.43757976131894 57.7281903668883 153.07145710470266 H 0.0 **** 0.06
28664 H 117.7518110280592 57.9512000658915 152.54426189986975 H 0.0 **** 0.06
28665 H 118.20233007219207 58.263712299163814 154.23684452046263 H 0.0 **** 0.06
28666 C 98.06683874443745 152.64886030765717 147.2315154247568 C 0.0 **** -0.24
28667 H 97.43956630002874 151.75905808033076 147.282394031944 H 0.0 **** 0.06
28668 H 99.01423626633455 152.39780421422836 146.75367846838208 H 0.0 **** 0.06
28669 H 98.2551666488056 153.01895254619717 148.23932626962505 H 0.0 **** 0.06
28670 H 97.55931443603312 153.4176370145908 146.650238576412 H 0.0 **** 0.06
28671 C 100.80143199807355 168.8769150230594 28.109070600816793 C 0.0 **** -0.24
28672 H 100.65585935339567 167.8121962128857 27.92475608539995 H 0.0 **** 0.06
28673 H 101.72941287791144 169.0255920379031 28.660996310974028 H 0.0 **** 0.06
28674 H 99.96450297120583 169.26214876197335 28.69121759678883 H 0.0 **** 0.06
28675 H 100.8563399280174 169.40494971717436 27.157535092631804 H 0.0 **** 0.06
28676 C 91.35573011394223 152.87864254066392 124.55659591361875 C 0.0 **** -0.24
28677 H 90.81284574224776 153.8028929294579 124.751995804387 H 0.0 **** 0.06
28678 H 91.16036269655433 152.55216834838185 123.53472333895378 H 0.0 **** 0.06
28679 H 91.02486844990676 152.10866245928443 125.25385311635323 H 0.0 **** 0.06
28680 H 92.42397215975012 153.05107053852868 124.68472030720677 H 0.0 **** 0.06
28681 C 182.7323790692093 155.78069356486296 142.31500834750238 C 0.0 **** -0.24
28682 H 182.0648378229659 156.5917357454843 142.60534370357817 H 0.0 **** 0.06
28683 H 182.57280808074339 154.92552613583248 142.97334654526037 H 0.0 **** 0.06
28684 H 183.76691880045328 156.11409411182373 142.3981647600633 H 0.0 **** 0.06
28685 H 182.5257458624455 155.49078993658483 141.28517197813056 H 0.0 **** 0.06
28686 C 169.11448658627512 102.1612568343952 60.24099224100382 C 0.0 **** -0.24
28687 H 169.71049289669227 103.0336615285209 59.9733957418355 H 0.0 **** 0.06
28688 H 168.12040254937048 102.48290694651132 60.55333744079621 H 0.0 **** 0.06
28689 H 169.5980634264608 101.6282756115366 61.059303798589895 H 0.0 **** 0.06
28690 H 169.02767167255055 101.50141839919115 59.377069904997654 H 0.0 **** 0.06
28691 C 13.87693678699955 74.54795277191462 57.66321127040817 C 0.0 **** -0.24
28692 H 14.449876155680698 74.57799098484773 56.736406787546684 H 0.0 **** 0.06
28693 H 13.45842287587439 75.53421815985996 57.86413428414966 H 0.0 **** 0.06
28694 H 14.530822356641636 74.25562050298755 58.48563871519599 H 0.0 **** 0.06
28695 H 13.068310069300765 73.82307529070611 57.566946822263844 H 0.0 **** 0.06
28696 C 93.51829063123478 129.70678970342414 26.126046911293983 C 0.0 **** -0.24
28697 H 94.56629238785223 129.74986763115186 25.830696346666855 H 0.0 **** 0.06
28698 H 93.13339700906835 128.7017577422199 25.951115387919756 H 0.0 **** 0.06
28699 H 92.94498747832358 130.4229782600874 25.53875501610962 H 0.0 **** 0.06
28700 H 93.42949797103103 129.95129648063715 27.184246158402416 H 0.0 **** 0.06
28701 C 158.09125810966304 104.09183365563753 157.77577195020243 C 0.0 **** -0.24
28702 H 157.35637640323762 104.28861355608656 156.99550923883945 H 0.0 **** 0.06
28703 H 158.61320945984335 105.01655537793793 158.02367295811808 H 0.0 **** 0.06
28704 H 158.80865081971422 103.35266041397749 157.4211088004374 H 0.0 **** 0.06
28705 H 157.5849674991914 103.71106644291142 158.6623273577892 H 0.0 **** 0.06
28706 C 92.83222795542083 121.65962660873605 125.30705004217789 C 0.0 **** -0.24
28707 H 92.92188958198743 122.50134315921856 125.99319608007171 H 0.0 **** 0.06
28708 H 92.84142658173981 120.72803683554004 125.87166159809159 H 0.0 **** 0.06
28709 H 93.6701357316228 121.67061770174139 124.60821874722548 H 0.0 **** 0.06
28710 H 91.89667245854749 121.74047775931207 124.75296666900736 H 0.0 **** 0.06
28711 C 49.555029078618304 12.079177347233099 50.03656196677275 C 0.0 **** -0.24
28712 H 48.59592208122709 11.881225658181279 50.51552779948301 H 0.0 **** 0.06
28713 H 50.34204395252499 12.0919271337809 50.791554304915536 H 0.0 **** 0.06
28714 H 49.516863770922896 13.04578099841143 49.534742136864494 H 0.0 **** 0.06
28715 H 49.76420618792707 11.297733164469037 49.30638097801355 H 0.0 **** 0.06
28716 C 90.22907643253541 61.728688045919796 48.95862374732819 C 0.0 **** -0.24
28717 H 89.37045989195752 61.31790365284979 48.42936565158293 H 0.0 **** 0.06
28718 H 89.89921481733768 62.533411426575924 49.61641549461282 H 0.0 **** 0.06
28719 H 90.9472795009192 62.12003937680339 48.2377972335413 H 0.0 **** 0.06
28720 H 90.70026144356547 60.94380061396622 49.55101533212941 H 0.0 **** 0.06
28721 C 102.36262558768017 0.5282219831367456 168.31836558576407 C 0.0 **** -0.24
28722 H 101.82062272540936 -0.39692543874235753 168.12302101471008 H 0.0 **** 0.06
28723 H 101.76945931689552 1.1655418653638776 168.9752191007765 H 0.0 **** 0.06
28724 H 102.5457129541657 1.0468876267128735 167.3767561360133 H 0.0 **** 0.06
28725 H 103.31405792737361 0.29747790154442555 168.79610610155154 H 0.0 **** 0.06
28726 C 169.47301463065523 84.90878385088898 24.826984230691053 C 0.0 **** -0.24
28727 H 168.76526861525116 85.73427487543547 24.91216372471723 H 0.0 **** 0.06
28728 H 170.03058425427275 85.00455211844253 23.89487107422643 H 0.0 **** 0.06
28729 H 168.92977767918796 83.96414697388056 24.83124246902372 H 0.0 **** 0.06
28730 H 170.16427475939628 84.93464476541365 25.669215793170196 H 0.0 **** 0.06
28731 C 52.18640949440474 108.43817000124234 155.17186639707597 C 0.0 **** -0.24
28732 H 52.227938853270345 108.57408660226498 156.2532254440929 H 0.0 **** 0.06
28733 H 51.43504698058385 107.68679801840999 154.929245548411 H 0.0 **** 0.06
28734 H 53.16093731087389 108.10793866775408 154.81000011772147 H 0.0 **** 0.06
28735 H 51.923583883822005 109.38320276977872 154.69800766966642 H 0.0 **** 0.06
28736 C 123.5969392495714 158.0687848643684 7.934546177129334 C 0.0 **** -0.24
28737 H 122.89781915041546 158.66613776838284 7.349944654839817 H 0.0 **** 0.06
28738 H 123.8247677794151 158.58629395794648 8.866820214587221 H 0.0 **** 0.06
28739 H 124.51503952418621 157.9243290185563 7.365348716519378 H 0.0 **** 0.06
28740 H 123.15012954342684 157.09922696211942 8.15554150341913 H 0.0 **** 0.06
28741 C 41.64458217311126 161.4570995538467 177.42517796853838 C 0.0 **** -0.24
28742 H 42.57171251759462 161.96834410263105 177.6812554172384 H 0.0 **** 0.06
28743 H 41.59158438712443 160.51066867833202 177.96414663056237 H 0.0 **** 0.06
28744 H 41.618573029558775 161.2674137996774 176.3521662257799 H 0.0 **** 0.06
28745 H 40.79583450314435 162.08211242133862 177.70391204674308 H 0.0 **** 0.06
28746 C 169.85625405940652 104.94109941276787 21.258415371046567 C 0.0 **** -0.24
28747 H 169.96870949511782 105.96484817073457 21.615253733982968 H 0.0 **** 0.06
28748 H 168.8292750768752 104.61230258151363 21.41475204292442 H 0.0 **** 0.06
28749 H 170.53533980760815 104.28862433889941 21.807750606894245 H 0.0 **** 0.06
28750 H 170.09381955918096 104.89886946039587 20.194716792244066 H 0.0 **** 0.06
28751 C 112.77185152661055 68.97211423390935 27.401281956111205 C 0.0 **** -0.24
28752 H 112.74006835212869 69.47858514827186 28.365085029800696 H 0.0 **** 0.06
28753 H 113.49452489490612 68.1571254925608 27.44221993817564 H 0.0 **** 0.06
28754 H 113.06666550881327 69.68174844686733 26.627816133453962 H 0.0 **** 0.06
28755 H 111.78486070889657 68.57194152926766 27.168440152791305 H 0.0 **** 0.06
28756 C 130.64633638403342 124.93101102066987 59.68980263179982 C 0.0 **** -0.24
28757 H 129.85969223946574 124.594558177014 60.36576776233878 H 0.0 **** 0.06
28758 H 131.57453680641504 124.41066893333209 59.92610636108941 H 0.0 **** 0.06
28759 H 130.7901286109506 126.00509694619706 59.806873472787075 H 0.0 **** 0.06
28760 H 130.35852228674446 124.7129731745519 58.66163051985363 H 0.0 **** 0.06
28761 C 77.40883535259108 107.1725194066226 115.07142966098307 C 0.0 **** -0.24
28762 H 77.95479490205888 108.06150425084502 115.38975735340482 H 0.0 **** 0.06
28763 H 76.91274624782842 106.72505669038463 115.93223571432337 H 0.0 **** 0.06
28764 H 78.10465511967239 106.45439248362521 114.63735715312136 H 0.0 **** 0.06
28765 H 76.66327849224619 107.45242954445916 114.32612926189226 H 0.0 **** 0.06
28766 C 16.26151265209338 73.40677657580798 126.75034476187584 C 0.0 **** -0.24
28767 H 16.356758648427423 73.2640084962069 127.82691424296304 H 0.0 **** 0.06
28768 H 17.099561601555884 72.92672099335431 126.24432798613445 H 0.0 **** 0.06
28769 H 16.26232873582461 74.47280114113488 126.52413620670809 H 0.0 **** 0.06
28770 H 15.326856846951621 72.96301260545125 126.4071779920179 H 0.0 **** 0.06
28771 C 128.84947392126895 97.14728832320985 166.95945138361185 C 0.0 **** -0.24
28772 H 128.8567728120077 96.05809619973537 167.0026556827669 H 0.0 **** 0.06
28773 H 129.61860821952365 97.48754365184634 166.26511851037552 H 0.0 **** 0.06
28774 H 129.04997598098896 97.55218705185696 167.95146514869015 H 0.0 **** 0.06
28775 H 127.87312224107438 97.48987768623108 166.616965933109 H 0.0 **** 0.06
28776 C 108.20726605341815 181.55653076402962 145.55461439428913 C 0.0 **** -0.24
28777 H 107.1742475412592 181.2296681944874 145.67681094527205 H 0.0 **** 0.06
28778 H 108.7295912959122 181.46853037445453 146.50798718074162 H 0.0 **** 0.06
28779 H 108.22289604732538 182.59511234627234 145.22543762936874 H 0.0 **** 0.06
28780 H 108.69998023035748 180.93154114386766 144.81064393295455 H 0.0 **** 0.06
28781 C 147.4799646769552 175.00008546228483 9.864881518927469 C 0.0 **** -0.24
28782 H 147.64198296654777 175.0774203539054 10.94068995377095 H 0.0 **** 0.06
28783 H 147.96561185483387 175.83701588549943 9.363843965631993 H 0.0 **** 0.06
28784 H 146.41085431342213 175.02070020046006 9.657369142494922 H 0.0 **** 0.06
28785 H 147.90311118798024 174.0634082004539 9.501607369557128 H 0.0 **** 0.06
28786 C 123.65790712027625 34.90561363835923 100.48364351617671 C 0.0 **** -0.24
28787 H 124.06420788511393 34.068860093374724 99.91566151804373 H 0.0 **** 0.06
28788 H 122.78521873703126 34.57209915670285 101.04628147351828 H 0.0 **** 0.06
28789 H 123.36723654522616 35.70227294056599 99.79967574779407 H 0.0 **** 0.06
28790 H 124.4149511229737 35.276905207403445 101.17374951538521 H 0.0 **** 0.06
28791 C 180.65098052300323 70.52547796277777 53.116856534750895 C 0.0 **** -0.24
28792 H 180.49589294542614 71.4481073034557 52.5572555029141 H 0.0 **** 0.06
28793 H 181.62963032171496 70.55104418628555 53.59561460618718 H 0.0 **** 0.06
28794 H 180.60153056208003 69.67469314816597 52.435981871162085 H 0.0 **** 0.06
28795 H 179.87606357456576 70.42709809327029 53.87702065229571 H 0.0 **** 0.06
28796 C 32.10711394274733 12.070806156232152 6.739937903144877 C 0.0 **** -0.24
28797 H 32.08375073967514 12.560164125382215 5.7664933542020975 H 0.0 **** 0.06
28798 H 32.32714503639245 12.808282663371358 7.511144786123296 H 0.0 **** 0.06
28799 H 32.87962127780261 11.301617850308588 6.740309865453739 H 0.0 **** 0.06
28800 H 31.138132462907166 11.612439466376657 6.939470483887931 H 0.0 **** 0.06
28801 C 1.098499160105355 155.79645188017543 165.10632797800292 C 0.0 **** -0.24
28802 H 0.5604885490536304 155.50915368597458 166.009515491403 H 0.0 **** 0.06
28803 H 0.562405603604347 156.60401164632782 164.6050761922403 H 0.0 **** 0.06
28804 H 1.1712914911310222 154.93846713402797 164.43818741728666 H 0.0 **** 0.06
28805 H 2.0997514237518615 156.1356911954689 165.37169744206773 H 0.0 **** 0.06
28806 C 25.182694594172574 25.832785392946292 124.29659342848699 C 0.0 **** -0.24
28807 H 24.866424598971008 25.800098828768583 125.33945499914482 H 0.0 **** 0.06
28808 H 25.680691199406198 24.897438609368947 124.0382967470179 H 0.0 **** 0.06
28809 H 25.871854358929056 26.663980552306114 124.15100234957045 H 0.0 **** 0.06
28810 H 24.309787877208066 25.96827584046676 123.65793893047159 H 0.0 **** 0.06
28811 C 169.9880748620352 23.46900907042385 145.86309619684448 C 0.0 **** -0.24
28812 H 169.34055912913476 23.530555445268476 146.73742494972413 H 0.0 **** 0.06
28813 H 169.38301034546285 23.28931892607298 144.97434890429315 H 0.0 **** 0.06
28814 H 170.69601397471894 22.650356515287 145.99263218061765 H 0.0 **** 0.06
28815 H 170.53416930108057 24.405838081464452 145.74935241318542 H 0.0 **** 0.06
28816 C 47.91127144948443 180.3168679718512 143.6923484169707 C 0.0 **** -0.24
28817 H 47.55842871267512 181.20109044957604 144.2224945844534 H 0.0 **** 0.06
28818 H 47.5594372020218 180.34766811750094 142.66113826512856 H 0.0 **** 0.06
28819 H 47.526181735209164 179.42186826274107 144.18149645979082 H 0.0 **** 0.06
28820 H 49.001038148031625 180.29684505758684 143.70426435851004 H 0.0 **** 0.06
28821 C 177.8461101037072 152.88310031445943 144.65046618219748 C 0.0 **** -0.24
28822 H 177.0933163148479 152.2258246935841 145.08449568338438 H 0.0 **** 0.06
28823 H 178.78747978936622 152.75958473402437 145.18520103382878 H 0.0 **** 0.06
28824 H 177.51477031376982 153.91874178186498 144.732484970589 H 0.0 **** 0.06
28825 H 177.98813824982196 152.62944443985782 143.59950372364813 H 0.0 **** 0.06
28826 C 135.84931064002802 158.34515333789832 95.42081369223155 C 0.0 **** -0.24
28827 H 136.43471031534546 159.19405503373457 95.06478764952476 H 0.0 **** 0.06
28828 H 136.3738485724242 157.8642100239719 96.2463558450836 H 0.0 **** 0.06
28829 H 135.71598211238683 157.63024951551665 94.60864905318994 H 0.0 **** 0.06
28830 H 134.87512546071588 158.69373814387254 95.76280085263113 H 0.0 **** 0.06
28831 C 167.52507234859593 179.312498454396 184.65662597997897 C 0.0 **** -0.24
28832 H 168.30752836895215 179.9918788260543 184.99505360241656 H 0.0 **** 0.06
28833 H 167.97833135626698 178.39334552511946 184.2837646683936 H 0.0 **** 0.06
28834 H 166.95290588000304 179.78594004379522 183.85797775455922 H 0.0 **** 0.06
28835 H 166.8616735565634 179.07937746281533 185.48888494474284 H 0.0 **** 0.06
28836 C 145.40762445297034 158.65101627688279 114.23965611165609 C 0.0 **** -0.24
28837 H 144.6218566582833 159.29189789839603 113.84090423383951 H 0.0 **** 0.06
28838 H 144.99008369660345 157.996780512389 115.00533075359739 H 0.0 **** 0.06
28839 H 146.19283982342336 159.26777736337883 114.67754418214032 H 0.0 **** 0.06
28840 H 145.82708776053298 158.046550084919 113.43481665924726 H 0.0 **** 0.06
28841 C 116.23651106647338 163.0571417847961 92.54136529225481 C 0.0 **** -0.24
28842 H 115.64678751697943 162.7126316112146 91.69228683814877 H 0.0 **** 0.06
28843 H 116.26178840857546 164.14758254432903 92.54756283923935 H 0.0 **** 0.06
28844 H 117.25233875473009 162.6708458739935 92.45804098859209 H 0.0 **** 0.06
28845 H 115.78654293350615 162.69853691299625 93.46617691904196 H 0.0 **** 0.06
28846 C 166.53659616703428 76.75641607188452 83.02007416052885 C 0.0 **** -0.24
28847 H 167.42921816274645 76.51344368310448 82.44272783474483 H 0.0 **** 0.06
28848 H 165.6505690973958 76.45187520957408 82.46377816258979 H 0.0 **** 0.06
28849 H 166.50257524141514 77.83151579586011 83.19940221015536 H 0.0 **** 0.06
28850 H 166.56701719817724 76.22971784813402 83.97389746990744 H 0.0 **** 0.06
28851 C 18.764417832098275 91.51733521144324 148.46713039546736 C 0.0 **** -0.24
28852 H 18.518830620465792 90.46765547111319 148.30934984824418 H 0.0 **** 0.06
28853 H 18.04552369701321 91.95874753210516 149.15737654628282 H 0.0 **** 0.06
28854 H 18.727016578929977 92.04648947161549 147.51477947003076 H 0.0 **** 0.06
28855 H 19.767631729535026 91.59656650683614 148.88655339689203 H 0.0 **** 0.06
28856 C 32.19358798679676 170.88717066430576 81.80244524789352 C 0.0 **** -0.24
28857 H 31.397287181762692 170.83726839335128 82.54579521963366 H 0.0 **** 0.06
28858 H 32.96150307046187 171.5835830376273 82.13871238175743 H 0.0 **** 0.06
28859 H 31.782592382744156 171.22868144293585 80.85226191189962 H 0.0 **** 0.06
28860 H 32.63201132229199 169.89709826559516 81.67394618607868 H 0.0 **** 0.06
28861 C 37.80336159953305 70.66821799339404 55.13087876697304 C 0.0 **** -0.24
28862 H 37.17948520296579 70.01419323389827 55.74077813562879 H 0.0 **** 0.06
28863 H 37.39536116948216 71.67936600361298 55.148506607219474 H 0.0 **** 0.06
28864 H 37.82058312170693 70.3012118261122 54.105180356373566 H 0.0 **** 0.06
28865 H 38.81762603376106 70.67768803164282 55.531432593329484 H 0.0 **** 0.06
28866 C 176.72929266839805 14.682592453106338 36.17106045461725 C 0.0 **** -0.24
28867 H 176.3875806299892 14.699266140235778 35.13591300334073 H 0.0 **** 0.06
28868 H 176.2598020102254 15.497823581460807 36.721986133230644 H 0.0 **** 0.06
28869 H 177.81276224389984 14.801161058374959 36.197959200308475 H 0.0 **** 0.06
28870 H 176.4567600510946 13.730741063185349 36.62820845727185 H 0.0 **** 0.06
28871 C 81.99454807174044 33.69087605929303 17.052935504390724 C 0.0 **** -0.24
28872 H 82.56973493074037 33.81186329599953 16.13401735071279 H 0.0 **** 0.06
28873 H 82.60388300474536 33.18020509815835 17.798351805955086 H 0.0 **** 0.06
28874 H 81.10112070997545 33.10061367516175 16.846718976958492 H 0.0 **** 0.06
28875 H 81.7027599650323 34.67110789205384 17.428988161545668 H 0.0 **** 0.06
28876 C 108.62870106053856 69.96989221117902 21.294247581336663 C 0.0 **** -0.24
28877 H 109.45421681359204 69.3066731832629 21.550426420334475 H 0.0 **** 0.06
28878 H 107.72562816091886 69.64090262621582 21.807627104869027 H 0.0 **** 0.06
28879 H 108.46375349403627 69.94465121339029 20.21683513969407 H 0.0 **** 0.06
28880 H 108.87156599013292 70.98698513623569 21.5999237846479 H 0.0 **** 0.06
28881 C 7.591117839243132 134.40908909068293 26.346745711747687 C 0.0 **** -0.24
28882 H 7.357676477326059 135.31753153319454 26.900579425671268 H 0.0 **** 0.06
28883 H 7.811728352612882 133.60262861357546 27.046939180396123 H 0.0 **** 0.06
28884 H 8.458693098504746 134.58427947525945 25.709591968471656 H 0.0 **** 0.06
28885 H 6.737803425561168 134.1311892791103 25.72867811711005 H 0.0 **** 0.06
28886 C 119.68443988130288 108.36662745402107 46.660048767575915 C 0.0 **** -0.24
28887 H 120.16060330822633 107.8454925669189 45.82845317650826 H 0.0 **** 0.06
28888 H 120.20133434933318 109.30897296483768 46.841088561905664 H 0.0 **** 0.06
28889 H 119.73537737755497 107.74604269108396 47.55420662017363 H 0.0 **** 0.06
28890 H 118.64115037953924 108.56484091229719 46.41396583736318 H 0.0 **** 0.06
28891 C 171.54922213730444 25.63337432976232 134.032622335668 C 0.0 **** -0.24
28892 H 170.96590589350404 26.527236519373986 134.25464692846174 H 0.0 **** 0.06
28893 H 170.8780506625391 24.823879951622047 133.7445840019788 H 0.0 **** 0.06
28894 H 172.1138130215861 25.339482030577614 134.91744085465274 H 0.0 **** 0.06
28895 H 172.2388033535871 25.84244966852242 133.21512089940865 H 0.0 **** 0.06
28896 C 136.3866618721952 28.77728001339659 182.25930817027142 C 0.0 **** -0.24
28897 H 137.4729838657439 28.838258811390972 182.3259826004349 H 0.0 **** 0.06
28898 H 135.96910576979565 28.636650223043944 183.2568875185463 H 0.0 **** 0.06
28899 H 136.1090694574894 27.93536620873948 181.62609499231198 H 0.0 **** 0.06
28900 H 135.99818374644974 29.70044180062854 181.82869763259362 H 0.0 **** 0.06
28901 C 106.09835403335917 131.29784914923323 39.69394241507911 C 0.0 **** -0.24
28902 H 105.63677439167633 132.25641493489934 39.45314317025981 H 0.0 **** 0.06
28903 H 106.50558286761158 130.85365220017434 38.78573037618855 H 0.0 **** 0.06
28904 H 105.34934105410902 130.63145120255194 40.12110594790815 H 0.0 **** 0.06
28905 H 106.90139342712062 131.45347223741322 40.413795545503774 H 0.0 **** 0.06
28906 C 142.65208389337653 82.52257125527338 137.26218063881294 C 0.0 **** -0.24
28907 H 142.7845287814589 82.21835039919773 138.30031279724102 H 0.0 **** 0.06
28908 H 143.62790941860624 82.62061012950056 136.78515619631963 H 0.0 **** 0.06
28909 H 142.13275461640296 83.47978934626957 137.22689651163245 H 0.0 **** 0.06
28910 H 142.06345865979148 81.77086682917616 136.7356835646316 H 0.0 **** 0.06
28911 C 162.68854163046126 105.55548068473486 2.7950689216425815 C 0.0 **** -0.24
28912 H 163.6592809208887 105.06381663539842 2.7412263010834295 H 0.0 **** 0.06
28913 H 162.31485939025526 105.73387542521742 1.7858958406414729 H 0.0 **** 0.06
28914 H 162.79057406463266 106.50629370746618 3.31759387438305 H 0.0 **** 0.06
28915 H 161.98811289208658 104.91770879017555 3.3344852373588765 H 0.0 **** 0.06
28916 C 72.80589331477383 24.04771800194402 65.07375641811745 C 0.0 **** -0.24
28917 H 73.42874605335055 23.333557322872593 65.61331214108668 H 0.0 **** 0.06
28918 H 72.31160235118278 23.542848547323388 64.24347294103256 H 0.0 **** 0.06
28919 H 73.42887870717848 24.855585768212222 64.68909260158131 H 0.0 **** 0.06
28920 H 72.05519502350174 24.457785576444564 65.74943239555756 H 0.0 **** 0.06
28921 C 5.922692043607981 23.218083375492427 109.34639509554704 C 0.0 **** -0.24
28922 H 6.153980890514447 23.239094780789515 108.28189599810177 H 0.0 **** 0.06
28923 H 6.464879545384463 24.018138962586022 109.85168626425114 H 0.0 **** 0.06
28924 H 6.221434357259 22.25664226167629 109.76314724978009 H 0.0 **** 0.06
28925 H 4.8511154867645985 23.359201060985527 109.48783358816395 H 0.0 **** 0.06
28926 C 129.73745594049757 9.569145743190916 157.28896238394856 C 0.0 **** -0.24
28927 H 129.77031280589034 8.677522214348222 156.6618632668492 H 0.0 **** 0.06
28928 H 128.7552289940828 10.035830490104622 157.20621597426018 H 0.0 **** 0.06
28929 H 130.50333226406104 10.27195676433876 156.95901008387483 H 0.0 **** 0.06
28930 H 129.92296290412077 9.291178201216631 158.3256077095281 H 0.0 **** 0.06
28931 C 175.1519880194122 11.06995348105427 50.48358363988649 C 0.0 **** -0.24
28932 H 175.3776626235405 10.733075147112395 51.49516967923785 H 0.0 **** 0.06
28933 H 174.082129561433 10.971735946331812 50.29832282255967 H 0.0 **** 0.06
28934 H 175.70231692073955 10.461252323842935 49.76644811996783 H 0.0 **** 0.06
28935 H 175.444983655682 12.113828777012621 50.37489938222387 H 0.0 **** 0.06
28936 C 135.44207479343373 10.610400014306919 130.13676048680168 C 0.0 **** -0.24
28937 H 135.88318597034674 9.642982738182894 129.8950682730993 H 0.0 **** 0.06
28938 H 135.9328810378949 11.389908409392774 129.55270373118765 H 0.0 **** 0.06
28939 H 135.57371233427676 10.814547629366189 131.19895710309942 H 0.0 **** 0.06
28940 H 134.37780731952574 10.593753284327704 129.89878773637008 H 0.0 **** 0.06
28941 C 18.269543732843594 158.09908777961886 121.80356538948614 C 0.0 **** -0.24
28942 H 17.566402836643192 158.91751465270755 121.95126659424689 H 0.0 **** 0.06
28943 H 19.09658645244526 158.19865613803526 122.50658163840838 H 0.0 **** 0.06
28944 H 18.6527665717257 158.12963620359608 120.78356175458892 H 0.0 **** 0.06
28945 H 17.761599565005625 157.14875649685592 121.97178718217783 H 0.0 **** 0.06
28946 C 2.970530028650181 174.95313068945146 77.0478238010979 C 0.0 **** -0.24
28947 H 2.9462875926835537 175.7990621344736 77.7348075408198 H 0.0 **** 0.06
28948 H 3.6544512498782993 175.1728286468026 76.22712716414571 H 0.0 **** 0.06
28949 H 1.9711289519221324 174.77913002382485 76.65077646715173 H 0.0 **** 0.06
28950 H 3.311246744498497 174.06420126855255 77.57727061640217 H 0.0 **** 0.06
28951 C 118.6528613456269 165.87926707725623 158.310840765926 C 0.0 **** -0.24
28952 H 118.23969457660037 164.88532472806065 158.1360288169809 H 0.0 **** 0.06
28953 H 118.35127203063148 166.22921464512706 159.2984206177089 H 0.0 **** 0.06
28954 H 118.2798777740952 166.56673522518147 157.55198824307766 H 0.0 **** 0.06
28955 H 119.74032589000088 165.8335583969639 158.25788862776872 H 0.0 **** 0.06
28956 C 76.25045166306514 44.78804011674458 5.829459101146767 C 0.0 **** -0.24
28957 H 77.17790327160931 45.19244218334444 5.425201978055043 H 0.0 **** 0.06
28958 H 75.49082351713767 44.77008288033983 5.047198268596389 H 0.0 **** 0.06
28959 H 75.90949140806194 45.41643173153511 6.652832327695592 H 0.0 **** 0.06
28960 H 76.42335394625026 43.77526369284385 6.193441351665683 H 0.0 **** 0.06
28961 C 101.7980661864989 182.39355998544744 143.13937886967184 C 0.0 **** -0.24
28962 H 102.16892009058911 181.56568411163494 143.74411624685598 H 0.0 **** 0.06
28963 H 100.861543471855 182.10441074171487 142.66238276315693 H 0.0 **** 0.06
28964 H 102.53348826331067 182.64253453170807 142.37447011500905 H 0.0 **** 0.06
28965 H 101.62917139214657 183.2620519516826 143.77628516178308 H 0.0 **** 0.06
28966 C 73.12662251491793 114.47904634740466 164.7747580860246 C 0.0 **** -0.24
28967 H 73.03580273617774 114.05503060575403 163.77485320277322 H 0.0 **** 0.06
28968 H 72.21320281056973 115.0198181304391 165.02485549837814 H 0.0 **** 0.06
28969 H 73.97442703406045 115.16434313535963 164.8032045344591 H 0.0 **** 0.06
28970 H 73.28445616238042 113.67687860006386 165.4962938302741 H 0.0 **** 0.06
28971 C 104.35940843373673 42.50550731539366 84.37220757491662 C 0.0 **** -0.24
28972 H 104.48621103226954 42.18903084931726 83.33639478468467 H 0.0 **** 0.06
28973 H 105.1559227400487 43.19940808371665 84.63964547579315 H 0.0 **** 0.06
28974 H 104.40094329717776 41.634737761136336 85.02551345188488 H 0.0 **** 0.06
28975 H 103.39312456020069 42.99854060106563 84.48531396155124 H 0.0 **** 0.06
28976 C 28.229250442346157 104.23678286503376 48.14861927329582 C 0.0 **** -0.24
28977 H 29.020816078355736 104.89517993211528 47.79232237155722 H 0.0 **** 0.06
28978 H 28.46908223461938 103.89184902315397 49.15419060778379 H 0.0 **** 0.06
28979 H 28.141413386509058 103.37944786356452 47.48127175525457 H 0.0 **** 0.06
28980 H 27.285113946108638 104.78093101470132 48.16592312271055 H 0.0 **** 0.06
28981 C 106.69408095655092 183.26067563543967 3.3228182734578695 C 0.0 **** -0.24
28982 H 106.66517914855075 182.60997777928299 4.196520932424505 H 0.0 **** 0.06
28983 H 105.975118074526 184.07023366937574 3.4482277034784374 H 0.0 **** 0.06
28984 H 106.44246576829869 182.68491120764025 2.4324540386473927 H 0.0 **** 0.06
28985 H 107.69567414497067 183.6782885803966 3.213892106905746 H 0.0 **** 0.06
28986 C 28.393593245423347 134.68853287134345 128.0001336139499 C 0.0 **** -0.24
28987 H 27.311500800990018 134.81154718698969 128.01784632887853 H 0.0 **** 0.06
28988 H 28.640403407301818 133.6307938480944 128.08869575468378 H 0.0 **** 0.06
28989 H 28.8354199576018 135.23647101889736 128.8327177355025 H 0.0 **** 0.06
28990 H 28.78788269635936 135.07607170137715 127.06041511214984 H 0.0 **** 0.06
28991 C 121.59829399729499 37.019641531929395 46.43808460854282 C 0.0 **** -0.24
28992 H 122.54487630684316 36.479243594949224 46.44623104854196 H 0.0 **** 0.06
28993 H 121.05600633513792 36.79022116418736 45.52023670416662 H 0.0 **** 0.06
28994 H 121.7911346987676 38.09089740701937 46.488300714525195 H 0.0 **** 0.06
28995 H 121.0003728816837 36.717912819286084 47.29811570635212 H 0.0 **** 0.06
28996 C 16.570649021647796 109.2817198266921 90.98641843857526 C 0.0 **** -0.24
28997 H 16.984258811959876 108.79698686401417 90.10269663148905 H 0.0 **** 0.06
28998 H 16.15598684764001 110.25056078106672 90.70769302831177 H 0.0 **** 0.06
28999 H 17.35871171506551 109.4218171256253 91.72559045859576 H 0.0 **** 0.06
29000 H 15.783539292782393 108.65728045446224 91.40872650284565 H 0.0 **** 0.06
29001 C 51.2413479236626 66.98260416862254 166.16128596957185 C 0.0 **** -0.24
29002 H 51.83623177144591 66.07909260688008 166.29414086387538 H 0.0 **** 0.06
29003 H 51.52058892485212 67.46693022757421 165.2252907194485 H 0.0 **** 0.06
29004 H 51.42519880603601 67.66378328098394 166.9923920061654 H 0.0 **** 0.06
29005 H 50.18420514214722 66.72079467901793 166.1344482709998 H 0.0 **** 0.06
29006 C 17.063142060924292 10.514441433862231 59.69338940521769 C 0.0 **** -0.24
29007 H 16.84345952400949 11.396857773102084 60.29320880790981 H 0.0 **** 0.06
29008 H 16.414110025362675 9.694541458662684 60.002426348739704 H 0.0 **** 0.06
29009 H 18.105293028065887 10.22697063593992 59.83795877516023 H 0.0 **** 0.06
29010 H 16.891933484670574 10.737622327096716 58.64090793539178 H 0.0 **** 0.06
29011 C 75.53963463385044 49.30114170313976 1.935750768430168 C 0.0 **** -0.24
29012 H 75.37578638133988 49.98942458613482 2.763734305564512 H 0.0 **** 0.06
29013 H 76.59340318190256 49.31473052010182 1.6551200757762814 H 0.0 **** 0.06
29014 H 74.93281504105285 49.606541229305435 1.0837997985422803 H 0.0 **** 0.06
29015 H 75.2577219171342 48.29314865568983 2.240609110284815 H 0.0 **** 0.06
29016 C 99.09919793730181 147.7411736766068 13.540014028731605 C 0.0 **** -0.24
29017 H 98.58903712670083 146.84609631565604 13.184604659696475 H 0.0 **** 0.06
29018 H 98.83950459295635 148.5862400913644 12.90140498022322 H 0.0 **** 0.06
29019 H 100.17693977340203 147.58067679844754 13.511245115870253 H 0.0 **** 0.06
29020 H 98.79148767283364 147.9518072455973 14.565026855750943 H 0.0 **** 0.06
29021 C 175.69889830528462 29.101157837093467 0.7393472400189012 C 0.0 **** -0.24
29022 H 175.66855793151404 30.116298625795963 0.34334849302467774 H 0.0 **** 0.06
29023 H 176.150731887843 28.4363431670493 0.0026341000685761173 H 0.0 **** 0.06
29024 H 174.68471346247276 28.76608035489386 0.956804246296656 H 0.0 **** 0.06
29025 H 176.29061880948237 29.086147147016874 1.654619815174101 H 0.0 **** 0.06
29026 C 13.614769267751939 42.388917150581904 147.610405699367 C 0.0 **** -0.24
29027 H 14.5196750327938 41.948077089036076 148.02829199115556 H 0.0 **** 0.06
29028 H 12.758393593005053 41.76241367565757 147.85705814463694 H 0.0 **** 0.06
29029 H 13.713281735847659 42.46035700043822 146.52727920561182 H 0.0 **** 0.06
29030 H 13.469584111860286 43.385544684019635 148.028831590094 H 0.0 **** 0.06
29031 C 0.5588457696965747 78.3283113561929 164.59674849620387 C 0.0 **** -0.24
29032 H -0.4039433640968184 78.05610974587779 165.02727571787898 H 0.0 **** 0.06
29033 H 0.6369213805346021 77.916204767372 163.58991198521656 H 0.0 **** 0.06
29034 H 1.3601448218095413 77.92722484829358 165.21712241439826 H 0.0 **** 0.06
29035 H 0.6431434765287918 79.41415403603287 164.55254516163643 H 0.0 **** 0.06
29036 C 73.44930105874411 82.92690587828511 156.5361070946102 C 0.0 **** -0.24
29037 H 73.25887181078771 83.99530189788196 156.43766933111894 H 0.0 **** 0.06
29038 H 72.63290812950521 82.36896944164272 156.07715514830414 H 0.0 **** 0.06
29039 H 73.51843030826367 82.66634605195837 157.5924442080722 H 0.0 **** 0.06
29040 H 74.38535240802061 82.67722274865791 156.03766798932872 H 0.0 **** 0.06
29041 C 95.65480115532034 161.24318384716196 118.03567878106293 C 0.0 **** -0.24
29042 H 95.80464680852407 162.312314058251 118.18956920214993 H 0.0 **** 0.06
29043 H 96.1014348908476 160.94685511916202 117.08600358342926 H 0.0 **** 0.06
29044 H 94.58726891890097 161.02431815423023 118.02067587324649 H 0.0 **** 0.06
29045 H 96.1275761800963 160.6900445693064 118.84801560148316 H 0.0 **** 0.06
29046 C 31.064574251357044 18.30947248219809 182.5820051134146 C 0.0 **** -0.24
29047 H 30.8011433287991 18.064131962786064 183.6112993205488 H 0.0 **** 0.06
29048 H 30.665118813978438 19.292898587697266 182.33007285527745 H 0.0 **** 0.06
29049 H 30.640214037279435 17.56223870713592 181.91206150635975 H 0.0 **** 0.06
29050 H 32.14862712590494 18.318806941799494 182.47652737266384 H 0.0 **** 0.06
29051 C 100.46615961166162 73.47433349188778 72.62526190929003 C 0.0 **** -0.24
29052 H 99.41109438297002 73.33729738892448 72.38688856921858 H 0.0 **** 0.06
29053 H 101.07619989548255 73.01983062957994 71.84514439006523 H 0.0 **** 0.06
29054 H 100.68612005551688 73.00041563898165 73.5816146802046 H 0.0 **** 0.06
29055 H 100.68817428535789 74.53897565091924 72.68721256515119 H 0.0 **** 0.06
29056 C 57.05996422090732 162.25996796909303 43.22426257430925 C 0.0 **** -0.24
29057 H 57.3270333264519 163.3167101599301 43.254879882758644 H 0.0 **** 0.06
29058 H 57.96087015436785 161.66236445454578 43.08616878376023 H 0.0 **** 0.06
29059 H 56.37523848294836 162.08193402067147 42.39415295630323 H 0.0 **** 0.06
29060 H 56.5769599745625 161.97969665006175 44.15955836304002 H 0.0 **** 0.06
29061 C 150.75121442585555 79.12345988688335 88.55526801854649 C 0.0 **** -0.24
29062 H 149.91748463057257 79.24549544901414 87.86372964921804 H 0.0 **** 0.06
29063 H 150.83948587852052 80.01438906362678 89.17726136562544 H 0.0 **** 0.06
29064 H 151.67316182847992 78.98059477264958 87.99229298333023 H 0.0 **** 0.06
29065 H 150.57373030123972 78.25376522235536 89.18870780595114 H 0.0 **** 0.06
29066 C 52.6121291395919 163.40250023470168 140.6279270858953 C 0.0 **** -0.24
29067 H 52.94321338442742 162.44642757559075 140.22174034212662 H 0.0 **** 0.06
29068 H 51.97058237169671 163.9029136311585 139.9010697441671 H 0.0 **** 0.06
29069 H 53.47978818506232 164.02760124876988 140.8386849179759 H 0.0 **** 0.06
29070 H 52.054748199085935 163.2321410663493 141.54844573217537 H 0.0 **** 0.06
29071 C 22.804146576021523 90.66227262363005 46.22765802447225 C 0.0 **** -0.24
29072 H 23.108528978246284 90.12932373105544 47.12954396141784 H 0.0 **** 0.06
29073 H 21.932285423014775 90.17126685385973 45.79414694813323 H 0.0 **** 0.06
29074 H 23.622454879533194 90.65399125364947 45.50749602312811 H 0.0 **** 0.06
29075 H 22.553025994537506 91.691780853568 46.48198971672403 H 0.0 **** 0.06
29076 C 138.17309581267608 54.342100745187906 73.14717467941028 C 0.0 **** -0.24
29077 H 138.99538205928633 54.94752065549494 72.7654372936251 H 0.0 **** 0.06
29078 H 137.38845567628613 54.99470121573833 73.53019275873629 H 0.0 **** 0.06
29079 H 138.53659677148 53.700876363014686 73.95093567517279 H 0.0 **** 0.06
29080 H 137.77339308794666 53.72447542035579 72.34362503946096 H 0.0 **** 0.06
29081 C 72.31932801842265 64.40674140852508 156.61057097712822 C 0.0 **** -0.24
29082 H 72.66432278105111 65.23606420031007 157.22809076195887 H 0.0 **** 0.06
29083 H 73.12575540783821 63.6821859660689 156.49358097057365 H 0.0 **** 0.06
29084 H 72.02283282426318 64.7824296836487 155.63112813073215 H 0.0 **** 0.06
29085 H 71.46590996713954 63.92711426401114 157.08929196191997 H 0.0 **** 0.06
29086 C 69.74116369532254 13.364471109942436 82.9341187578057 C 0.0 **** -0.24
29087 H 70.1490353077969 13.59352304015205 81.94989454052843 H 0.0 **** 0.06
29088 H 69.42148336737148 12.322630564883994 82.96123215392507 H 0.0 **** 0.06
29089 H 68.8868235410886 14.01237112322898 83.13269081422757 H 0.0 **** 0.06
29090 H 70.50713138433746 13.529701340944861 83.69173530369787 H 0.0 **** 0.06
29091 C 50.185061018768465 179.37201608259954 147.49087759303396 C 0.0 **** -0.24
29092 H 51.17068411342706 179.4004967065348 147.95553589143287 H 0.0 **** 0.06
29093 H 49.752769701408766 178.37885481484074 147.61723147612878 H 0.0 **** 0.06
29094 H 50.277233646842944 179.59615990599985 146.42832683773074 H 0.0 **** 0.06
29095 H 49.540116399495275 180.11235800589637 147.96457226939364 H 0.0 **** 0.06
29096 C 117.16314266687529 141.95817412038627 109.36177467724643 C 0.0 **** -0.24
29097 H 116.72169344449453 142.60574394557415 108.60482207204124 H 0.0 **** 0.06
29098 H 118.07348330189537 142.4177439136173 109.7470380972453 H 0.0 **** 0.06
29099 H 117.40274493980091 140.99209983835652 108.91719329882385 H 0.0 **** 0.06
29100 H 116.45367064413618 141.816906274004 110.17808849351754 H 0.0 **** 0.06
29101 C 179.1854517668748 120.32429432678153 69.54313907853889 C 0.0 **** -0.24
29102 H 178.38367029857224 120.22333459623947 68.81149300337401 H 0.0 **** 0.06
29103 H 178.75935728927874 120.56408414465186 70.51715688860881 H 0.0 **** 0.06
29104 H 179.85995115081334 121.12252497282809 69.23411194692855 H 0.0 **** 0.06
29105 H 179.7375021826555 119.38655547970687 69.60719030156393 H 0.0 **** 0.06
29106 C 116.08325918810566 29.731751284684606 141.97421993232422 C 0.0 **** -0.24
29107 H 116.12910966729056 28.931737908895457 142.71354578116848 H 0.0 **** 0.06
29108 H 116.30509994531913 29.326458858902356 140.9860295973897 H 0.0 **** 0.06
29109 H 116.81480466636843 30.499654292087882 142.2248701602026 H 0.0 **** 0.06
29110 H 115.08451254615612 30.168515627145837 141.9730276826342 H 0.0 **** 0.06
29111 C 170.62974654955622 63.36638147497172 173.2408191534302 C 0.0 **** -0.24
29112 H 171.27336003671107 63.36444846599011 172.36081613109008 H 0.0 **** 0.06
29113 H 169.79219441614126 62.686667482075734 173.07922177606662 H 0.0 **** 0.06
29114 H 170.2534562537852 64.37403117634241 173.41398389319403 H 0.0 **** 0.06
29115 H 171.2022246430009 63.03739008644362 174.1093517761475 H 0.0 **** 0.06
29116 C 94.11248928136489 42.798177375959256 156.66946664992642 C 0.0 **** -0.24
29117 H 95.01009748480858 43.347981579612224 156.388478776091 H 0.0 **** 0.06
29118 H 93.61351530474808 43.31280371049306 157.4900798644919 H 0.0 **** 0.06
29119 H 94.38661233620878 41.79073938369737 156.98512888348483 H 0.0 **** 0.06
29120 H 93.43956577086 42.73981446179792 155.8144864976622 H 0.0 **** 0.06
29121 C 91.40871997845011 39.44632432897538 130.01577035638496 C 0.0 **** -0.24
29122 H 91.66153319275287 38.918461447161576 130.93527708203914 H 0.0 **** 0.06
29123 H 92.28117926829304 39.477348035836826 129.36261823279614 H 0.0 **** 0.06
29124 H 91.096917769355 40.463573952860315 130.25468241741692 H 0.0 **** 0.06
29125 H 90.59476245158976 38.92695249944268 129.51133069046756 H 0.0 **** 0.06
29126 C 16.0329738633201 61.36171766910056 104.70166509110476 C 0.0 **** -0.24
29127 H 17.095668523088428 61.12757085926326 104.64299071812468 H 0.0 **** 0.06
29128 H 15.452646164413196 60.44597684542147 104.58545455870257 H 0.0 **** 0.06
29129 H 15.771204901023545 62.06122980109896 103.90722555763051 H 0.0 **** 0.06
29130 H 15.813164098394978 61.81224443564514 105.66867523635199 H 0.0 **** 0.06
29131 C 12.172906384070302 8.470687287068138 24.817302530086394 C 0.0 **** -0.24
29132 H 11.525793002601006 9.207297816116181 24.341689715073983 H 0.0 **** 0.06
29133 H 12.65189824643781 7.8600945250234275 24.05138892060897 H 0.0 **** 0.06
29134 H 11.578137564755934 7.8330641512256705 25.471064827828712 H 0.0 **** 0.06
29135 H 12.935796722486515 8.982292655907145 25.40506665683381 H 0.0 **** 0.06
29136 C 17.858814067009916 96.55807717501789 165.7020737959118 C 0.0 **** -0.24
29137 H 18.565290410454736 97.02075104050725 166.3909391121474 H 0.0 **** 0.06
29138 H 18.40632833915879 96.01411763935205 164.931615790941 H 0.0 **** 0.06
29139 H 17.247019805155816 97.33016055527794 165.2359167531076 H 0.0 **** 0.06
29140 H 17.21784881080353 95.86710948824306 166.24861705286241 H 0.0 **** 0.06
29141 C 174.6777339194524 139.1299486573052 118.75032475169873 C 0.0 **** -0.24
29142 H 174.11398838616887 138.8854292330002 119.65071610718702 H 0.0 **** 0.06
29143 H 174.1710669766689 138.71341775468852 117.8800288435893 H 0.0 **** 0.06
29144 H 175.6796601170994 138.70712636449042 118.82392206915695 H 0.0 **** 0.06
29145 H 174.74611858359228 140.21294467152836 118.648917022004 H 0.0 **** 0.06
29146 C 66.22828797469279 153.72780930294704 91.07668224421134 C 0.0 **** -0.24
29147 H 65.37643206191214 154.05001263537858 91.67508834907586 H 0.0 **** 0.06
29148 H 67.00113193825646 153.32554012765507 91.7324833638656 H 0.0 **** 0.06
29149 H 66.6277288374032 154.57983462645188 90.52531735309192 H 0.0 **** 0.06
29150 H 65.90913782119912 152.95778707096667 90.37462220792078 H 0.0 **** 0.06
29151 C 133.2169872461297 151.94891099022854 35.5695862759667 C 0.0 **** -0.24
29152 H 132.82362944666926 150.93258581956385 35.595512279703655 H 0.0 **** 0.06
29153 H 132.4566261494005 152.62190741070273 35.17127832490655 H 0.0 **** 0.06
29154 H 134.10067442281996 151.98145561722782 34.9326717036941 H 0.0 **** 0.06
29155 H 133.48468364318944 152.25952215927404 36.57960147786804 H 0.0 **** 0.06
29156 C 8.005141092777365 153.75117349831083 71.21958980096144 C 0.0 **** -0.24
29157 H 7.888506575623609 154.82802326161124 71.10554027967522 H 0.0 **** 0.06
29158 H 8.786232230209976 153.54592769493803 71.95308432130022 H 0.0 **** 0.06
29159 H 8.282368739039669 153.31196009219806 70.26136238753946 H 0.0 **** 0.06
29160 H 7.064716448784509 153.31729115954317 71.55985143031887 H 0.0 **** 0.06
29161 C 71.57307589969824 94.88906838207394 76.13341881467433 C 0.0 **** -0.24
29162 H 71.82521849338909 95.5047455334939 76.9960781269685 H 0.0 **** 0.06
29163 H 72.41680942041782 94.87111812006019 75.4417780419765 H 0.0 **** 0.06
29164 H 70.70093643959227 95.30594868642773 75.63144780464418 H 0.0 **** 0.06
29165 H 71.35229243777201 93.87422635452931 76.46389828372807 H 0.0 **** 0.06
29166 C 158.02661631235878 36.713642113047314 63.831988891491235 C 0.0 **** -0.24
29167 H 157.97240763414706 37.20936485463335 62.8631056534761 H 0.0 **** 0.06
29168 H 158.914546736974 36.08145102609251 63.86600920964071 H 0.0 **** 0.06
29169 H 157.13779067280228 36.10019277155661 63.97805819138081 H 0.0 **** 0.06
29170 H 158.08408934313047 37.46410806065481 64.62107703716516 H 0.0 **** 0.06
29171 C 154.4307287027135 86.05065276998107 55.648096535076945 C 0.0 **** -0.24
29172 H 155.21387580582086 86.0058247296098 54.89096085581684 H 0.0 **** 0.06
29173 H 154.52864975794046 85.20012870157052 56.322499702135445 H 0.0 **** 0.06
29174 H 153.4551174049085 86.0197327585771 55.16291624541725 H 0.0 **** 0.06
29175 H 154.52593863260302 86.97752894793206 56.21396223451558 H 0.0 **** 0.06
29176 C 157.662558539948 47.716015684831234 96.579893858677 C 0.0 **** -0.24
29177 H 158.33180606780957 47.13068274592287 95.94935721434922 H 0.0 **** 0.06
29178 H 157.58220041135553 47.244858113103945 97.55995482532984 H 0.0 **** 0.06
29179 H 156.67661075144315 47.76390039619186 96.11735479916365 H 0.0 **** 0.06
29180 H 158.06101592463745 48.72459142172376 96.69270376079976 H 0.0 **** 0.06
29181 C 35.27892700470693 97.13381264204158 130.77903116465222 C 0.0 **** -0.24
29182 H 35.16681612791808 98.0525609024799 131.3548116355368 H 0.0 **** 0.06
29183 H 35.70722900820465 97.36637860254929 129.8045868073072 H 0.0 **** 0.06
29184 H 34.30249294261603 96.6673922436175 130.64596008660334 H 0.0 **** 0.06
29185 H 35.93958660981366 96.44990240834484 131.31273057894163 H 0.0 **** 0.06
29186 C 170.02390954221326 66.16584934709812 182.44984420855232 C 0.0 **** -0.24
29187 H 169.9296773674862 65.27735467787188 183.073537132424 H 0.0 **** 0.06
29188 H 170.8650416030219 66.7669515297002 182.7977413614652 H 0.0 **** 0.06
29189 H 169.10812711214695 66.7523343590513 182.51182157746993 H 0.0 **** 0.06
29190 H 170.19413719335571 65.86678547396947 181.41584097022104 H 0.0 **** 0.06
29191 C 38.196184793880576 166.85899741543085 92.17724741596653 C 0.0 **** -0.24
29192 H 38.78944443637897 166.20998561052767 91.53195905159693 H 0.0 **** 0.06
29193 H 38.219284867533815 166.4757697331063 93.19767247799574 H 0.0 **** 0.06
29194 H 37.166754915862384 166.8821259126056 91.82006741153283 H 0.0 **** 0.06
29195 H 38.61065287688436 167.86662132963127 92.15733250425878 H 0.0 **** 0.06
29196 C 144.3683542589602 96.13169087352124 69.33638981755968 C 0.0 **** -0.24
29197 H 145.35280636196086 95.66595423650712 69.38107542888378 H 0.0 **** 0.06
29198 H 143.84039231443467 95.78142925816657 68.44903004426402 H 0.0 **** 0.06
29199 H 144.48204150282464 97.21491973409486 69.28751421870905 H 0.0 **** 0.06
29200 H 143.79996448075826 95.86555786609448 70.22716511337285 H 0.0 **** 0.06
29201 C 2.14267845859672 90.96935551104934 45.418608873559265 C 0.0 **** -0.24
29202 H 2.632945280558488 91.90663333744101 45.68247833363469 H 0.0 **** 0.06
29203 H 1.5467618625453383 91.11290012461131 44.51724339848822 H 0.0 **** 0.06
29204 H 1.4950218835965643 90.65514822840157 46.23709412550009 H 0.0 **** 0.06
29205 H 2.8972382352708337 90.20423822954501 45.238050201631324 H 0.0 **** 0.06
29206 C 65.72460840082267 88.96264000868958 12.110948272693427 C 0.0 **** -0.24
29207 H 66.6963680687366 89.21615857534722 11.689178421627638 H 0.0 **** 0.06
29208 H 65.48112765597863 89.66410299487661 12.90974624557603 H 0.0 **** 0.06
29209 H 65.75591486641106 87.95020418439712 12.51374347349536 H 0.0 **** 0.06
29210 H 64.96417941898348 89.02044791892824 11.332203532283465 H 0.0 **** 0.06
29211 C 109.41966086672473 127.77572803402056 129.93103831610767 C 0.0 **** -0.24
29212 H 109.89293943349641 126.91607026303221 130.40730643500189 H 0.0 **** 0.06
29213 H 108.92245094629469 127.45530051729672 129.01620071681867 H 0.0 **** 0.06
29214 H 110.17810744803155 128.52106910047382 129.6921181722579 H 0.0 **** 0.06
29215 H 108.68601611674812 128.20918379742955 130.61128155472994 H 0.0 **** 0.06
29216 C 68.64968745506819 75.20869646454037 43.88340184114165 C 0.0 **** -0.24
29217 H 68.35644079643824 74.15975788461176 43.906759582107014 H 0.0 **** 0.06
29218 H 68.16243359615761 75.74031172057461 44.700450338678436 H 0.0 **** 0.06
29219 H 68.34871219754466 75.64901470324682 42.93224037601287 H 0.0 **** 0.06
29220 H 69.73174519457717 75.28552783533603 43.993362608575026 H 0.0 **** 0.06
29221 C 98.29069178083041 25.738516924037086 74.3205295152481 C 0.0 **** -0.24
29222 H 97.64886703856378 26.514427514258713 74.73909629118833 H 0.0 **** 0.06
29223 H 97.93803634988028 24.760717605172033 74.64808560751163 H 0.0 **** 0.06
29224 H 99.31357834054857 25.89024899789821 74.66313102161666 H 0.0 **** 0.06
29225 H 98.26002147707995 25.790881440031967 73.2318217148989 H 0.0 **** 0.06
29226 C 170.14957462410098 162.4958894397175 58.87044906203991 C 0.0 **** -0.24
29227 H 171.02813911871925 162.98651173805715 58.45062460993162 H 0.0 **** 0.06
29228 H 169.50451314270856 163.24258706015692 59.33404557191841 H 0.0 **** 0.06
29229 H 170.4629552035993 161.76888049024342 59.62023635419129 H 0.0 **** 0.06
29230 H 169.60432438887793 161.9869522887646 58.076222711380694 H 0.0 **** 0.06
29231 C 61.482090481656954 119.86294356564859 98.95433409402136 C 0.0 **** -0.24
29232 H 62.16606194124131 119.74597074387962 98.11375110341129 H 0.0 **** 0.06
29233 H 60.641685147628166 119.1786932712349 98.8352383920593 H 0.0 **** 0.06
29234 H 61.11427310894632 120.88844755571215 98.98278231715153 H 0.0 **** 0.06
29235 H 62.0054905573607 119.63824060582674 99.88330679932403 H 0.0 **** 0.06
29236 C 8.307072602785453 86.05303317356821 40.49634164202044 C 0.0 **** -0.24
29237 H 7.415770970335522 86.62645385216301 40.24192960427706 H 0.0 **** 0.06
29238 H 9.14466042976548 86.39718034275366 39.8899649349226 H 0.0 **** 0.06
29239 H 8.125640982038647 84.99648882455739 40.300732457477295 H 0.0 **** 0.06
29240 H 8.540257228963554 86.19276498205984 41.55148063437713 H 0.0 **** 0.06
29241 C 75.83203815271442 152.71989366552867 94.56488288242139 C 0.0 **** -0.24
29242 H 76.11663019161925 151.67962343888956 94.72414242050883 H 0.0 **** 0.06
29243 H 75.3147991166578 152.81351653257371 93.60976513435423 H 0.0 **** 0.06
29244 H 76.72583250557811 153.34378048422704 94.55692945200849 H 0.0 **** 0.06
29245 H 75.1708132236447 153.04286112347916 95.36966981375576 H 0.0 **** 0.06
29246 C 67.9262597069842 65.35491472282547 101.70927070104875 C 0.0 **** -0.24
29247 H 67.02855245076191 64.75488728095786 101.8560702191665 H 0.0 **** 0.06
29248 H 68.3346474945176 65.64153414978443 102.67821397823514 H 0.0 **** 0.06
29249 H 67.67571479081062 66.25043983719132 101.14117531985829 H 0.0 **** 0.06
29250 H 68.66657991769476 64.77232579603975 101.16037042972113 H 0.0 **** 0.06
29251 C 136.6238884045036 104.61129064656767 21.375482041346316 C 0.0 **** -0.24
29252 H 137.43162290651378 105.34130387463928 21.316278637370374 H 0.0 **** 0.06
29253 H 136.79526918590528 103.94740664075367 22.2218330183791 H 0.0 **** 0.06
29254 H 136.59526574228744 104.02766603518954 20.45432816420265 H 0.0 **** 0.06
29255 H 135.67471799737388 105.13002123542826 21.505783422799595 H 0.0 **** 0.06
29256 C 76.04038810887671 180.19771758508466 161.37695848156744 C 0.0 **** -0.24
29257 H 76.79158772306435 179.61019953527318 161.9052311905848 H 0.0 **** 0.06
29258 H 76.49932734498405 181.10631441634078 160.98603782335283 H 0.0 **** 0.06
29259 H 75.23754331701565 180.46237855650458 162.06396731422595 H 0.0 **** 0.06
29260 H 75.63538621950858 179.61179114495968 160.55175423748904 H 0.0 **** 0.06
29261 C 63.22922845164908 152.452753652637 48.21241621935826 C 0.0 **** -0.24
29262 H 62.58711870549803 153.07566942440752 47.5901097306795 H 0.0 **** 0.06
29263 H 64.14098419349011 152.9992362702625 48.45480349973667 H 0.0 **** 0.06
29264 H 63.48341928303529 151.54142622094196 47.67227580561695 H 0.0 **** 0.06
29265 H 62.703961762394584 152.19518560819256 49.13163760124826 H 0.0 **** 0.06
29266 C 132.86547288584984 154.34176747287748 52.109560867200855 C 0.0 **** -0.24
29267 H 132.70163404149366 154.68414787697236 53.132021570397114 H 0.0 **** 0.06
29268 H 133.8096162827601 153.7984370770795 52.056384524521604 H 0.0 **** 0.06
29269 H 132.90106719462852 155.20047751518084 51.44057325557884 H 0.0 **** 0.06
29270 H 132.0489324941671 153.68263515537333 51.81221464270334 H 0.0 **** 0.06
29271 C 160.9694001997053 125.67741385657799 141.64152802829614 C 0.0 **** -0.24
29272 H 161.08454600300914 124.86203974850615 140.92660572593928 H 0.0 **** 0.06
29273 H 161.25181487944798 126.61790075854641 141.1690053457683 H 0.0 **** 0.06
29274 H 161.6099949827345 125.49595523015718 142.5040066835403 H 0.0 **** 0.06
29275 H 159.93039542560513 125.7312643906641 141.9654686778979 H 0.0 **** 0.06
29276 C 56.77978102777985 81.50806608732563 166.73820602813635 C 0.0 **** -0.24
29277 H 57.04817720184968 81.00574180533499 165.80909292376725 H 0.0 **** 0.06
29278 H 57.06341314626286 82.5589338783509 166.67743531724386 H 0.0 **** 0.06
29279 H 57.303836422912354 81.03751183533905 167.56974856316756 H 0.0 **** 0.06
29280 H 55.70333104201751 81.42976994182084 166.89566886092433 H 0.0 **** 0.06
29281 C 86.20977166112947 87.50842099577024 92.03802098617474 C 0.0 **** -0.24
29282 H 87.08872788924644 86.87050874692436 92.12486710732914 H 0.0 **** 0.06
29283 H 85.83344479554121 87.74472471366558 93.03480836527622 H 0.0 **** 0.06
29284 H 85.43756739741967 86.98868232315188 91.47143592256116 H 0.0 **** 0.06
29285 H 86.47900756754144 88.43043690194212 91.5233045160128 H 0.0 **** 0.06
29286 C 125.27471403452398 116.7890568488247 71.5533309407086 C 0.0 **** -0.24
29287 H 124.46563925230248 116.8882331343329 70.82985293940834 H 0.0 **** 0.06
29288 H 125.23341645885972 117.6166192526817 72.26095465517575 H 0.0 **** 0.06
29289 H 126.23137165429335 116.80380292437006 71.03146112308572 H 0.0 **** 0.06
29290 H 125.16871538115277 115.84564437155613 72.08877425515678 H 0.0 **** 0.06
29291 C 14.593410197777757 14.806053279761962 61.53652709541248 C 0.0 **** -0.24
29292 H 14.731805486664484 15.085297442124734 60.4924443478771 H 0.0 **** 0.06
29293 H 15.397634845819354 15.23182353564431 62.13637854569538 H 0.0 **** 0.06
29294 H 14.607750521277652 13.720099654817197 61.62693966239104 H 0.0 **** 0.06
29295 H 13.635149179369506 15.187449066319552 61.89003021050809 H 0.0 **** 0.06
29296 C 102.68037304019698 150.4298756882108 109.77082296174159 C 0.0 **** -0.24
29297 H 103.61940577535044 150.25215349690524 109.24807285700611 H 0.0 **** 0.06
29298 H 101.9413530668322 149.69397415559138 109.45132207284244 H 0.0 **** 0.06
29299 H 102.31840102355828 151.43172933021913 109.53925459446724 H 0.0 **** 0.06
29300 H 102.84021141424437 150.34071008865817 110.84543384845388 H 0.0 **** 0.06
29301 C 169.23346051620533 71.09685436629516 38.51608439229378 C 0.0 **** -0.24
29302 H 170.31120275367053 71.1121773345105 38.35412378971026 H 0.0 **** 0.06
29303 H 168.91598525500532 72.05212545841854 38.93480264607666 H 0.0 **** 0.06
29304 H 168.98180847524577 70.29372383969789 39.208631840106136 H 0.0 **** 0.06
29305 H 168.72635524584788 70.93010799271572 37.564988555630634 H 0.0 **** 0.06
29306 C 43.83311817977631 39.767378265625155 130.84080068411515 C 0.0 **** -0.24
29307 H 43.373408737469106 39.934414419980726 131.8146802990924 H 0.0 **** 0.06
29308 H 44.20476106746099 40.71346151789788 130.44648175064503 H 0.0 **** 0.06
29309 H 43.09334236450708 39.35331763783688 130.1558971174744 H 0.0 **** 0.06
29310 H 44.662444948824884 39.06685107175923 130.94534329427728 H 0.0 **** 0.06
29311 C 83.0391252417597 67.13258121239849 153.30136811698284 C 0.0 **** -0.24
29312 H 83.60439506816438 66.3559273653756 152.78701301763556 H 0.0 **** 0.06
29313 H 82.81183591218489 67.93910285624429 152.6036863976093 H 0.0 **** 0.06
29314 H 83.62989478881745 67.52317851722242 154.12977649717018 H 0.0 **** 0.06
29315 H 82.10955930609683 66.71169354304811 153.68460186340613 H 0.0 **** 0.06
29316 C 91.47705528078579 62.03409871470552 112.7020077553459 C 0.0 **** -0.24
29317 H 92.4043917128652 61.63098073381735 112.29564045126841 H 0.0 **** 0.06
29318 H 90.64202899548202 61.40473361479758 112.39330393116569 H 0.0 **** 0.06
29319 H 91.32688723442273 63.04686740880612 112.32720446186676 H 0.0 **** 0.06
29320 H 91.53620838580913 62.05381040177224 113.78980309462167 H 0.0 **** 0.06
29321 C 74.20240993197424 74.1229657768893 127.84192687532028 C 0.0 **** -0.24
29322 H 74.55241335229178 74.88527452441929 127.1465152558542 H 0.0 **** 0.06
29323 H 73.1529716428746 74.30224930964296 128.07849206339273 H 0.0 **** 0.06
29324 H 74.79416260472924 74.1664276854828 128.75558664168864 H 0.0 **** 0.06
29325 H 74.30919626532435 73.13908155672065 127.38515682075017 H 0.0 **** 0.06
29326 C 45.15944793682712 105.6847533051972 45.40163786806016 C 0.0 **** -0.24
29327 H 46.15968553844192 105.27398264845289 45.54103867293685 H 0.0 **** 0.06
29328 H 45.006855330682924 105.9181118771973 44.34749003304967 H 0.0 **** 0.06
29329 H 45.05356089239817 106.5933212208655 45.995052274784 H 0.0 **** 0.06
29330 H 44.418257297896616 104.95278615935928 45.72282924772844 H 0.0 **** 0.06
29331 C 16.25833717508789 62.507750618203715 34.80615096742905 C 0.0 **** -0.24
29332 H 16.678677521563316 63.145247398846465 35.58389591783775 H 0.0 **** 0.06
29333 H 15.266465594369635 62.17054404083298 35.11027249224 H 0.0 **** 0.06
29334 H 16.90606853423506 61.643969830799904 34.65536897751589 H 0.0 **** 0.06
29335 H 16.181034260530907 63.07186222458964 33.87624896277215 H 0.0 **** 0.06
29336 C 145.83805582801025 165.27216921638185 71.12326033140286 C 0.0 **** -0.24
29337 H 145.98329545599972 165.69400410398643 70.12825924340528 H 0.0 **** 0.06
29338 H 146.51508598660348 164.4290496480271 71.26128542049643 H 0.0 **** 0.06
29339 H 144.8082274086358 164.93177588678404 71.22658092958052 H 0.0 **** 0.06
29340 H 146.0466104361526 166.03347792846398 71.87470851664791 H 0.0 **** 0.06
29341 C 118.63461777680446 132.52303149402428 178.71921440143944 C 0.0 **** -0.24
29342 H 117.6554758336572 132.98680781299367 178.59488430409226 H 0.0 **** 0.06
29343 H 118.9821162829944 132.67827243499227 179.74083733246152 H 0.0 **** 0.06
29344 H 119.34014502980612 132.97322027315573 178.02190407848343 H 0.0 **** 0.06
29345 H 118.55760556385117 131.4539549569297 178.51967529704558 H 0.0 **** 0.06
29346 C 61.41510766992708 83.89081712432647 180.14695121273925 C 0.0 **** -0.24
29347 H 62.09579630758434 83.42505241953626 180.8591503188268 H 0.0 **** 0.06
29348 H 61.64084676446218 84.95461394332445 180.07103310348919 H 0.0 **** 0.06
29349 H 60.38787011799437 83.76113220634012 180.48760381673227 H 0.0 **** 0.06
29350 H 61.53591748966751 83.42246992810489 179.1700176119088 H 0.0 **** 0.06
29351 C 114.56864263038398 128.753200058806 140.90933701802481 C 0.0 **** -0.24
29352 H 114.19174873636365 129.7232600730468 140.58665156415992 H 0.0 **** 0.06
29353 H 115.31235336292224 128.89420177282875 141.69403584045517 H 0.0 **** 0.06
29354 H 115.02605666084207 128.24099853473808 140.0622830700176 H 0.0 **** 0.06
29355 H 113.74346855967428 128.15261866974856 141.29399290015567 H 0.0 **** 0.06
29356 C 125.37023289707373 3.3519912763657587 95.15557583764253 C 0.0 **** -0.24
29357 H 124.42690510833184 3.1122198923625035 94.6653180279731 H 0.0 **** 0.06
29358 H 126.19400331598463 2.912300767844826 94.59199979797448 H 0.0 **** 0.06
29359 H 125.36621374790637 2.9481120598309474 96.16746553629777 H 0.0 **** 0.06
29360 H 125.49325258531893 4.433812528803621 95.19597723139707 H 0.0 **** 0.06
29361 C 13.621991745367609 20.23671327791834 116.92011138084955 C 0.0 **** -0.24
29362 H 12.889837510192137 21.013673744621798 117.13875025648782 H 0.0 **** 0.06
29363 H 14.541120373236481 20.43907949176608 117.47075270261605 H 0.0 **** 0.06
29364 H 13.832250643367956 20.22517576855674 115.85132309075969 H 0.0 **** 0.06
29365 H 13.223193482404326 19.267338362451085 117.22162857764259 H 0.0 **** 0.06
29366 C 141.47096704386087 26.606346627236306 153.36736135001956 C 0.0 **** -0.24
29367 H 142.54083138768783 26.423996117197092 153.46520778092813 H 0.0 **** 0.06
29368 H 140.92157151232345 25.86561102279144 153.9510862471158 H 0.0 **** 0.06
29369 H 141.1830408818206 26.529093462136643 152.31932088512065 H 0.0 **** 0.06
29370 H 141.23834657151133 27.605408759000994 153.7359192629811 H 0.0 **** 0.06
29371 C 161.07712129341735 142.09831474742316 88.20687513211651 C 0.0 **** -0.24
29372 H 160.7822309945949 142.45771349642354 89.192385454599 H 0.0 **** 0.06
29373 H 161.8527254505102 142.74735253058526 87.80085604400803 H 0.0 **** 0.06
29374 H 160.2118452835915 142.10650145594695 87.54417628360012 H 0.0 **** 0.06
29375 H 161.460572360019 141.081188137349 88.29079839904846 H 0.0 **** 0.06
29376 C 69.5948317262542 175.93421047161235 26.401910462524995 C 0.0 **** -0.24
29377 H 69.78892637838209 174.98496791948327 26.901184139128475 H 0.0 **** 0.06
29378 H 68.52227577980462 176.12788348973226 26.39536350008126 H 0.0 **** 0.06
29379 H 69.96196447666675 175.8857365643617 25.37628908493025 H 0.0 **** 0.06
29380 H 70.10640694396216 176.73523205653086 26.933460578395398 H 0.0 **** 0.06
29381 C 76.9322506784355 119.31593938867447 23.253111061016426 C 0.0 **** -0.24
29382 H 77.98161438661519 119.45627050276984 22.99524029664957 H 0.0 **** 0.06
29383 H 76.83867810145738 118.47879925706961 23.946129804580067 H 0.0 **** 0.06
29384 H 76.36162200529776 119.10465136328567 22.349466429766522 H 0.0 **** 0.06
29385 H 76.54958289116925 120.22130272943521 23.722158926499375 H 0.0 **** 0.06
29386 C 66.25567390013406 79.7585399011848 127.33596150168908 C 0.0 **** -0.24
29387 H 67.23013133283811 79.57765761755195 126.8821116602502 H 0.0 **** 0.06
29388 H 66.37504011180751 80.40814687079484 128.20403862822627 H 0.0 **** 0.06
29389 H 65.81916232530217 78.81051143536274 127.64954406608315 H 0.0 **** 0.06
29390 H 65.59963554638962 80.2380049675267 126.60968518849687 H 0.0 **** 0.06
29391 C 127.09535896954593 137.8044789730144 70.36082147852323 C 0.0 **** -0.24
29392 H 126.57156788896974 137.6410795927943 71.30291431994968 H 0.0 **** 0.06
29393 H 127.48241031256804 136.85449871819378 69.9909875158776 H 0.0 **** 0.06
29394 H 127.92071467277295 138.49748490424588 70.51955732881468 H 0.0 **** 0.06
29395 H 126.4038099255054 138.22456033264882 69.6292683511988 H 0.0 **** 0.06
29396 C 47.94586769570253 115.8098531132871 74.41325765800713 C 0.0 **** -0.24
29397 H 47.9257282108303 115.32954359120224 75.39157842858383 H 0.0 **** 0.06
29398 H 47.76689882459158 116.87908663971392 74.52977457201656 H 0.0 **** 0.06
29399 H 47.17027936543957 115.3784273418493 73.78078244209217 H 0.0 **** 0.06
29400 H 48.92047116170231 115.65270373788711 73.95226254366365 H 0.0 **** 0.06
29401 C 7.828593001836325 130.6745941093763 119.68227146189831 C 0.0 **** -0.24
29402 H 8.308493328324964 129.71438847584488 119.87165779398602 H 0.0 **** 0.06
29403 H 8.076976486343789 131.36870762537058 120.48526301804354 H 0.0 **** 0.06
29404 H 6.748284760273499 130.53873945461675 119.64051073203048 H 0.0 **** 0.06
29405 H 8.18170785484017 131.0758541541636 118.73223691289324 H 0.0 **** 0.06
29406 C 63.28072205816457 6.355360717805723 141.07927204181914 C 0.0 **** -0.24
29407 H 62.55819273776443 7.164286513472291 141.17922582830283 H 0.0 **** 0.06
29408 H 63.03106885517093 5.556529219127782 141.77751331504743 H 0.0 **** 0.06
29409 H 64.28012710754246 6.731486699863666 141.29976053528947 H 0.0 **** 0.06
29410 H 63.254619444002515 5.968299285457192 140.06078421309508 H 0.0 **** 0.06
29411 C 51.40434525473535 104.10330464594678 83.82199218086451 C 0.0 **** -0.24
29412 H 52.15722320652702 103.35121180928867 84.05549269590695 H 0.0 **** 0.06
29413 H 50.421018520396345 103.63466148787701 83.78887910057372 H 0.0 **** 0.06
29414 H 51.62653233787624 104.55109826013638 82.85336834118172 H 0.0 **** 0.06
29415 H 51.41260695414168 104.87624702648516 84.5902285857957 H 0.0 **** 0.06
29416 C 107.74899556879741 169.97577497135944 107.40388150690545 C 0.0 **** -0.24
29417 H 108.69811455024019 170.51068811184126 107.45422521369538 H 0.0 **** 0.06
29418 H 106.92911396677859 170.69443819591905 107.37168319125597 H 0.0 **** 0.06
29419 H 107.6434328189256 169.34162025933486 108.28445897956898 H 0.0 **** 0.06
29420 H 107.72786014995764 169.35838100330602 106.5058228527919 H 0.0 **** 0.06
29421 C 67.63079056973984 98.92505625985676 163.04732330890369 C 0.0 **** -0.24
29422 H 67.8837559160815 99.66618582323936 162.28946985684195 H 0.0 **** 0.06
29423 H 66.57002242987653 98.99883418445698 163.28856417086305 H 0.0 **** 0.06
29424 H 68.22199705480111 99.10877080315127 163.945467655451 H 0.0 **** 0.06
29425 H 67.84850079156246 97.92714647818973 162.6675948885585 H 0.0 **** 0.06
29426 C 162.38294667843684 83.76602181285051 47.12574884294625 C 0.0 **** -0.24
29427 H 163.06470104321824 84.5037144673052 47.54920946890664 H 0.0 **** 0.06
29428 H 161.44832508138236 83.77188101328682 47.68557959875042 H 0.0 **** 0.06
29429 H 162.83630425090027 82.77639299405689 47.1841618626722 H 0.0 **** 0.06
29430 H 162.1836387957409 84.01241379446537 46.08217289618811 H 0.0 **** 0.06
29431 C 43.17612512228925 49.245870458975645 59.82756621373899 C 0.0 **** -0.24
29432 H 42.59170413237473 49.0397310817157 58.931696808989244 H 0.0 **** 0.06
29433 H 43.115796832827186 50.30899848622107 60.064529725920735 H 0.0 **** 0.06
29434 H 44.21669092673943 48.97080570783811 59.654327762185886 H 0.0 **** 0.06
29435 H 42.780900274158796 48.665166976875554 60.661488372510405 H 0.0 **** 0.06
29436 C 58.971627195352255 23.10514217794028 152.17791917924123 C 0.0 **** -0.24
29437 H 59.122092805922705 23.070077565972014 151.09857634457742 H 0.0 **** 0.06
29438 H 58.24542785028427 22.34638063048942 152.46884662585921 H 0.0 **** 0.06
29439 H 58.599712587592705 24.09030827868463 152.46042343764987 H 0.0 **** 0.06
29440 H 59.918521350144886 22.91584233770385 152.68270366026144 H 0.0 **** 0.06
29441 C 129.057681999164 21.598498423609087 35.73139567249042 C 0.0 **** -0.24
29442 H 129.4566639619345 20.737513427416296 35.195247755547825 H 0.0 **** 0.06
29443 H 128.60219989625938 21.267280639079075 36.66505632598013 H 0.0 **** 0.06
29444 H 128.30618443668607 22.093409158867544 35.115429629930986 H 0.0 **** 0.06
29445 H 129.8655442257463 22.297822743444556 35.94892614010982 H 0.0 **** 0.06
29446 C 93.56462716453541 105.69050325250623 102.37180833504077 C 0.0 **** -0.24
29447 H 94.64743190702171 105.58857680504525 102.43308814666604 H 0.0 **** 0.06
29448 H 93.11288451144037 105.31857591464654 103.29225987193531 H 0.0 **** 0.06
29449 H 93.19296534056014 105.11353788687234 101.52579368648524 H 0.0 **** 0.06
29450 H 93.30456675471879 106.74035022647774 102.23824087437778 H 0.0 **** 0.06
29451 C 177.18473149979155 121.09057919283958 95.04672112362685 C 0.0 **** -0.24
29452 H 177.9537810420972 120.4675789272531 94.59273018342965 H 0.0 **** 0.06
29453 H 177.5698610571726 122.10100860102403 95.18374301046545 H 0.0 **** 0.06
29454 H 176.90330906231102 120.6741441570702 96.01332218250765 H 0.0 **** 0.06
29455 H 176.31043539451395 121.12076827342275 94.39559568887346 H 0.0 **** 0.06
29456 C 32.998742817724576 182.476020243349 80.08504977145164 C 0.0 **** -0.24
29457 H 32.470112253959655 183.39762636172782 79.84344838478665 H 0.0 **** 0.06
29458 H 32.95065102980044 182.3009232010094 81.16027979027155 H 0.0 **** 0.06
29459 H 34.04101016512152 182.5639539933836 79.77789378062512 H 0.0 **** 0.06
29460 H 32.53433151195878 181.64183853976016 79.56048675986165 H 0.0 **** 0.06
29461 C 56.29139283953272 23.131638140533994 44.22907944976971 C 0.0 **** -0.24
29462 H 55.96793241545427 23.921281103395074 44.90771169433752 H 0.0 **** 0.06
29463 H 56.88479319691663 22.400998205900464 44.77948719399299 H 0.0 **** 0.06
29464 H 56.89331806353249 23.563169980499026 43.43003712807928 H 0.0 **** 0.06
29465 H 55.41733172354273 22.641064849439516 43.800166419670575 H 0.0 **** 0.06
29466 C 78.07133665117573 78.5449380083205 137.86898777275542 C 0.0 **** -0.24
29467 H 77.35102203789708 77.87312897917522 138.33671298093873 H 0.0 **** 0.06
29468 H 78.63067642694537 78.00314535819498 137.106708239302 H 0.0 **** 0.06
29469 H 78.75829528820891 78.92370971587745 138.62482648071318 H 0.0 **** 0.06
29470 H 77.54177014748778 79.37869144958479 137.40777861689423 H 0.0 **** 0.06
29471 C 42.946287221107696 80.57167825321233 84.47248215065981 C 0.0 **** -0.24
29472 H 42.89104687700592 79.51216566291663 84.22233031498433 H 0.0 **** 0.06
29473 H 43.08434377491426 81.15302358201637 83.56090694415451 H 0.0 **** 0.06
29474 H 43.78805258165312 80.74318503296911 85.14317795237957 H 0.0 **** 0.06
29475 H 42.022328093021144 80.8778173934428 84.96292961590417 H 0.0 **** 0.06
29476 C 129.36388215347648 110.761997480099 5.453969307472455 C 0.0 **** -0.24
29477 H 128.8911198394103 111.36386035159013 6.230794428517143 H 0.0 **** 0.06
29478 H 128.9338474754042 109.76075774698607 5.458387351430311 H 0.0 **** 0.06
29479 H 130.43529022592247 110.6981487788464 5.646131918411321 H 0.0 **** 0.06
29480 H 129.19643339338484 111.22684012620876 4.482572076090207 H 0.0 **** 0.06
29481 C 169.21542043710517 114.70470338115081 26.461379778674313 C 0.0 **** -0.24
29482 H 169.18449639321878 115.72913108538057 26.83498651336737 H 0.0 **** 0.06
29483 H 170.15477148623918 114.23852956036171 26.758216318397842 H 0.0 **** 0.06
29484 H 169.13998067113067 114.7127611728776 25.374535608910207 H 0.0 **** 0.06
29485 H 168.38138425781742 114.14140843322457 26.879729886069526 H 0.0 **** 0.06
29486 C 51.62030942703967 176.5675378980336 118.60437241947174 C 0.0 **** -0.24
29487 H 51.477370020744104 175.85881008017037 119.42001239329586 H 0.0 **** 0.06
29488 H 50.85076904113376 177.33800704921754 118.65274850936397 H 0.0 **** 0.06
29489 H 51.54907786412119 176.04262626375157 117.65108902255501 H 0.0 **** 0.06
29490 H 52.60376022858702 177.02909840916 118.69305600386694 H 0.0 **** 0.06
29491 C 179.54222973274813 35.31181598767989 184.92718274476587 C 0.0 **** -0.24
29492 H 180.3692925965458 35.998888422362626 184.75161275020344 H 0.0 **** 0.06
29493 H 179.55109022163782 34.530052780655524 184.1675656393983 H 0.0 **** 0.06
29494 H 178.59971072567157 35.8583709154272 184.87583067564094 H 0.0 **** 0.06
29495 H 179.64687342925276 34.862217739766265 185.91395801991806 H 0.0 **** 0.06
29496 C 13.712643988960224 17.382845180138503 137.28045176594532 C 0.0 **** -0.24
29497 H 13.771360284268042 18.32570568135759 136.73662933447974 H 0.0 **** 0.06
29498 H 14.078238161564371 16.57487549332194 136.64572877113295 H 0.0 **** 0.06
29499 H 12.676708136229934 17.187595517039085 137.55697632659536 H 0.0 **** 0.06
29500 H 14.32469368117043 17.443750524888202 138.18012285422412 H 0.0 **** 0.06
29501 C 129.67535384740836 95.31298851552877 0.8435775934332668 C 0.0 **** -0.24
29502 H 128.62245662873335 95.45658069243093 1.082667647986625 H 0.0 **** 0.06
29503 H 130.28942738413787 95.81669058781658 1.5898062890373836 H 0.0 **** 0.06
29504 H 129.88374096621618 95.73142515270733 -0.14196641616232597 H 0.0 **** 0.06
29505 H 129.9059343018243 94.24776590095156 0.8416300485404449 H 0.0 **** 0.06
29506 C 93.23322979359727 74.28010171061652 46.860553793166446 C 0.0 **** -0.24
29507 H 93.99295767956346 73.69065669939407 47.37370628285771 H 0.0 **** 0.06
29508 H 93.34172171734525 74.1522137882718 45.78327362590673 H 0.0 **** 0.06
29509 H 93.35475363938707 75.33213240034495 47.11629334282679 H 0.0 **** 0.06
29510 H 92.2435015673147 73.94328798445754 47.16821904039193 H 0.0 **** 0.06
29511 C 94.38872547041932 132.40926457117536 56.76573796425822 C 0.0 **** -0.24
29512 H 93.38144645902186 132.25455116372348 56.378544050335165 H 0.0 **** 0.06
29513 H 95.06129061088974 132.64489120993 55.94043159435125 H 0.0 **** 0.06
29514 H 94.72876440397035 131.50165902155902 57.26579604696076 H 0.0 **** 0.06
29515 H 94.38163445858844 133.2345221526454 57.47727291576285 H 0.0 **** 0.06
29516 C 48.037760972975775 124.95695641474545 127.5076813713444 C 0.0 **** -0.24
29517 H 47.723426663497946 123.95129094083033 127.78884020065027 H 0.0 **** 0.06
29518 H 48.67202914652012 125.37170353870432 128.2911933833122 H 0.0 **** 0.06
29519 H 47.15899428155612 125.58840109063208 127.37807783020543 H 0.0 **** 0.06
29520 H 48.59620154764363 124.91406303898923 126.57212075463457 H 0.0 **** 0.06
29521 C 71.29751645343697 13.183653247382722 172.06812413088525 C 0.0 **** -0.24
29522 H 71.59101331854487 14.21498814632745 171.8730798461786 H 0.0 **** 0.06
29523 H 70.21332189907753 13.09530563795088 171.9950539982269 H 0.0 **** 0.06
29524 H 71.6195930906884 12.897160095038998 173.06879373326294 H 0.0 **** 0.06
29525 H 71.76653600639634 12.52865849871538 171.33367337751545 H 0.0 **** 0.06
29526 C 38.913523962876525 174.1631700287439 54.801380337975644 C 0.0 **** -0.24
29527 H 39.15874126140882 173.48852956335224 55.62132671997867 H 0.0 **** 0.06
29528 H 38.032761779081525 174.74973313606705 55.06406280256995 H 0.0 **** 0.06
29529 H 38.709716459031725 173.58243017879892 53.90214562200188 H 0.0 **** 0.06
29530 H 39.75462103229128 174.83255676880606 54.619263645196426 H 0.0 **** 0.06
29531 C 37.61072349147341 161.21531150253765 146.02895423929036 C 0.0 **** -0.24
29532 H 38.43444517032316 161.90530972516933 146.21339237224288 H 0.0 **** 0.06
29533 H 37.89999209153774 160.21184779091558 146.34400608180945 H 0.0 **** 0.06
29534 H 37.37352631035262 161.20914433007977 144.9660667686367 H 0.0 **** 0.06
29535 H 36.73604430571558 161.53666467262408 146.59548213317134 H 0.0 **** 0.06
29536 C 139.3644345896946 51.48617812063006 170.85462836232426 C 0.0 **** -0.24
29537 H 139.8955280973709 51.777775506443234 171.76087668407052 H 0.0 **** 0.06
29538 H 138.421562362832 52.030740322119826 170.7961958610768 H 0.0 **** 0.06
29539 H 139.16511998335278 50.4147995298987 170.87986660797998 H 0.0 **** 0.06
29540 H 139.97420842517357 51.72255724253925 169.98295747898328 H 0.0 **** 0.06
29541 C 51.87677689184598 148.56726331835492 66.75058902535659 C 0.0 **** -0.24
29542 H 50.874164420230954 148.79303280127323 66.38662920667679 H 0.0 **** 0.06
29543 H 51.95530232550131 148.85179480790262 67.79982777277166 H 0.0 **** 0.06
29544 H 52.60917367634234 149.1246431330453 66.16627997600517 H 0.0 **** 0.06
29545 H 52.06754233932577 147.4985757594888 66.6485555582885 H 0.0 **** 0.06
29546 C 179.09336338440121 49.67956367797609 36.908263162166975 C 0.0 **** -0.24
29547 H 178.53002807019 48.745981972808636 36.88717008253252 H 0.0 **** 0.06
29548 H 178.63112350912087 50.36669516501428 37.616668391787584 H 0.0 **** 0.06
29549 H 179.09178559550634 50.125719186013384 35.914048838165 H 0.0 **** 0.06
29550 H 180.12030280434797 49.47691439768789 37.21462911247025 H 0.0 **** 0.06
29551 C 82.06996772131697 125.22762364651264 176.75732089384496 C 0.0 **** -0.24
29552 H 82.85628886626601 125.42049815514027 176.02798569822218 H 0.0 **** 0.06
29553 H 82.26465323488142 124.27921192898044 177.25948736432164 H 0.0 **** 0.06
29554 H 81.10751628832215 125.17907193830966 176.2491916746354 H 0.0 **** 0.06
29555 H 82.05324503995467 126.03085533051599 177.49357123354673 H 0.0 **** 0.06
29556 C 123.85287170288234 99.06530202261887 106.9654938027778 C 0.0 **** -0.24
29557 H 124.60250055070077 98.55059053113631 107.56633323954331 H 0.0 **** 0.06
29558 H 122.90011764826187 98.54195700063518 107.04816224624825 H 0.0 **** 0.06
29559 H 124.17084358551932 99.08018874755975 105.92300513104057 H 0.0 **** 0.06
29560 H 123.73841464907002 100.08798600070538 107.32574433138852 H 0.0 **** 0.06
29561 C 140.4089766324514 86.35832122881442 175.92609867872568 C 0.0 **** -0.24
29562 H 141.04852828906348 85.93105606357352 176.6988396025503 H 0.0 **** 0.06
29563 H 140.880585868541 86.22737805717816 174.95139204858708 H 0.0 **** 0.06
29564 H 140.26631855127704 87.42166471974423 176.12036569189775 H 0.0 **** 0.06
29565 H 139.4432632379495 85.85348947684037 175.9341541597005 H 0.0 **** 0.06
29566 C 172.17796832159905 181.865650445801 77.48268681325541 C 0.0 **** -0.24
29567 H 173.04487121880493 182.4206477943343 77.84218186175953 H 0.0 **** 0.06
29568 H 172.3216387708764 181.6063717902995 76.43301125235112 H 0.0 **** 0.06
29569 H 171.2844061975211 182.4809746642683 77.58604150029772 H 0.0 **** 0.06
29570 H 172.06263099846115 180.95443546506655 78.06910211752238 H 0.0 **** 0.06
29571 C 165.58142719072183 130.46443439088932 123.75043613522182 C 0.0 **** -0.24
29572 H 166.25429023987874 131.32015728622468 123.70019678241134 H 0.0 **** 0.06
29573 H 166.10389018806308 129.6175786400588 124.19757500116832 H 0.0 **** 0.06
29574 H 165.25416711903992 130.19901931669727 122.74478705816553 H 0.0 **** 0.06
29575 H 164.71416914320181 130.7198368421652 124.3593732681256 H 0.0 **** 0.06
29576 C 112.79110841173106 13.734138016203268 118.0351390696838 C 0.0 **** -0.24
29577 H 113.37059856996295 14.654677653584592 117.9563651653404 H 0.0 **** 0.06
29578 H 112.57587113666243 13.528965719249534 119.08364209747168 H 0.0 **** 0.06
29579 H 113.3648081424033 12.90831097863618 117.61293803019885 H 0.0 **** 0.06
29580 H 111.85682598090936 13.84552375840346 117.48597617156184 H 0.0 **** 0.06
29581 C 150.3285400012959 34.40581416489425 56.831830518040675 C 0.0 **** -0.24
29582 H 150.1446337696869 35.27296144912799 56.19901506140042 H 0.0 **** 0.06
29583 H 149.83283627675866 33.53275259371209 56.405089704225986 H 0.0 **** 0.06
29584 H 149.9364718480702 34.594524540269546 57.83100533268906 H 0.0 **** 0.06
29585 H 151.4012387196188 34.220793128909264 56.89212189598098 H 0.0 **** 0.06
29586 C 22.536334349963965 136.28174051348134 111.27562725884174 C 0.0 **** -0.24
29587 H 23.524642803952702 136.69615702962335 111.07365759919928 H 0.0 **** 0.06
29588 H 21.90029157379297 137.05375064093874 111.70933145150444 H 0.0 **** 0.06
29589 H 22.626860808244658 135.44956648372664 111.974144059593 H 0.0 **** 0.06
29590 H 22.09536539225718 135.9276566650306 110.34409231205616 H 0.0 **** 0.06
29591 C 91.18428886312559 178.31809847233671 22.2503540688748 C 0.0 **** -0.24
29592 H 90.53679581924298 179.08020514863296 22.6848486643687 H 0.0 **** 0.06
29593 H 92.18810749999183 178.41722531247478 22.663759903369908 H 0.0 **** 0.06
29594 H 91.22264267565744 178.44737491782158 21.169276403058632 H 0.0 **** 0.06
29595 H 90.7900848537994 177.32969806921503 22.48535447717373 H 0.0 **** 0.06
29596 C 151.13785426138676 43.50023383410394 81.20368273753895 C 0.0 **** -0.24
29597 H 151.63256056741776 44.29152563181469 80.63960087408358 H 0.0 **** 0.06
29598 H 151.6824784919216 43.321072565001145 82.13153029387104 H 0.0 **** 0.06
29599 H 151.1226555439375 42.58625974804704 80.60949358791495 H 0.0 **** 0.06
29600 H 150.11647177523724 43.801822059160656 81.43349286621228 H 0.0 **** 0.06
29601 C 179.2380937105952 50.534400488122344 86.56299024682284 C 0.0 **** -0.24
29602 H 179.07135689070907 49.98856247458728 85.63398536195524 H 0.0 **** 0.06
29603 H 178.28552428581577 50.90479612198581 86.94265581553668 H 0.0 **** 0.06
29604 H 179.9066924775399 51.37428325867907 86.3750222300904 H 0.0 **** 0.06
29605 H 179.68881169053168 49.86844365938185 87.2983739232364 H 0.0 **** 0.06
29606 C 167.24619809747296 154.52441078051908 94.51780425172755 C 0.0 **** -0.24
29607 H 166.50280215542375 153.72800341747987 94.55740422353206 H 0.0 **** 0.06
29608 H 166.74161902956251 155.48928232978903 94.46436990863195 H 0.0 **** 0.06
29609 H 167.87249117297713 154.39220555929032 93.63562562878552 H 0.0 **** 0.06
29610 H 167.86558480351772 154.48731155973007 95.4136558611891 H 0.0 **** 0.06
29611 C 122.4511171025892 73.89760767960898 58.45907220508863 C 0.0 **** -0.24
29612 H 123.00191897529947 74.67568196500905 57.92940146106767 H 0.0 **** 0.06
29613 H 122.50476024300127 72.96726203834913 57.89466212655499 H 0.0 **** 0.06
29614 H 121.40916909472594 74.20010212597165 58.56569693281759 H 0.0 **** 0.06
29615 H 122.8897612947008 73.75047621841485 59.44690215636129 H 0.0 **** 0.06
29616 C 87.94108146786816 181.0061284997757 137.90132854862986 C 0.0 **** -0.24
29617 H 87.30675854890693 180.69517641005916 137.0714083182823 H 0.0 **** 0.06
29618 H 87.69632230550765 182.03097468669748 138.1817953523713 H 0.0 **** 0.06
29619 H 88.98723536341645 180.95274090897323 137.59904694309057 H 0.0 **** 0.06
29620 H 87.7742852137519 180.34695597692985 138.75268331254637 H 0.0 **** 0.06
29621 C 124.01813579354592 119.98767350218957 145.69457899777046 C 0.0 **** -0.24
29622 H 123.44617168984604 119.14134887564556 145.31457104167532 H 0.0 **** 0.06
29623 H 123.38544286313777 120.58928077645923 146.34801892163097 H 0.0 **** 0.06
29624 H 124.36302769571762 120.5967146432826 144.86021350428888 H 0.0 **** 0.06
29625 H 124.87671402770326 119.62105259019687 146.25802545406282 H 0.0 **** 0.06
29626 C 88.18390451838336 63.916758144784126 5.2857273020393905 C 0.0 **** -0.24
29627 H 88.91494541216333 63.15712379994022 5.010430705617296 H 0.0 **** 0.06
29628 H 87.57972986036309 64.17305953919748 4.414877736600943 H 0.0 **** 0.06
29629 H 88.7018483894863 64.80571729103343 5.643995519255839 H 0.0 **** 0.06
29630 H 87.53786547356465 63.529783506120395 6.074898126016308 H 0.0 **** 0.06
29631 C 166.11868510720006 78.86605759394585 57.43690859097208 C 0.0 **** -0.24
29632 H 166.9689142456541 79.41863830558881 57.03766139826752 H 0.0 **** 0.06
29633 H 166.25725096337575 77.80121138179966 57.24953352911699 H 0.0 **** 0.06
29634 H 165.20390601918464 79.20528641618098 56.95150321912598 H 0.0 **** 0.06
29635 H 166.04574357683563 79.03977958461235 58.51146134317858 H 0.0 **** 0.06
29636 C 138.58243908219356 10.305721811348 20.214325378271383 C 0.0 **** -0.24
29637 H 139.3400088010029 10.879270188211976 19.680810871379492 H 0.0 **** 0.06
29638 H 137.75838233408746 10.963139374762171 20.492970325139083 H 0.0 **** 0.06
29639 H 139.0217616293936 9.871959130727099 21.11335876591761 H 0.0 **** 0.06
29640 H 138.21101482692063 9.508486629055312 19.57024738865249 H 0.0 **** 0.06
29641 C 86.4852715585593 103.66989111361687 128.02878199133738 C 0.0 **** -0.24
29642 H 87.16981138904077 103.06286369923589 128.62031666861486 H 0.0 **** 0.06
29643 H 86.24169174901573 103.14544778318839 127.10437436884091 H 0.0 **** 0.06
29644 H 86.95812047243857 104.62296905939445 127.79137368864382 H 0.0 **** 0.06
29645 H 85.57291011564877 103.84804159660354 128.5973761785841 H 0.0 **** 0.06
29646 C 18.269149968177913 48.27828059803477 112.78991045960349 C 0.0 **** -0.24
29647 H 18.354043126994156 49.35201223146521 112.95435154505462 H 0.0 **** 0.06
29648 H 19.249946815077948 47.86883972345851 112.54821834861097 H 0.0 **** 0.06
29649 H 17.583015656468575 48.0908069060049 111.9639415222136 H 0.0 **** 0.06
29650 H 17.888769186255757 47.80156470707533 113.69368631649182 H 0.0 **** 0.06
29651 C 14.421913124952368 139.27825888597943 180.8231272883321 C 0.0 **** -0.24
29652 H 14.885641657904529 139.0167509492013 181.7743348435077 H 0.0 **** 0.06
29653 H 13.4901256606596 138.7252589461251 180.7088796358307 H 0.0 **** 0.06
29654 H 15.09894010154747 139.02294051114978 180.00778970839804 H 0.0 **** 0.06
29655 H 14.214770471371878 140.3480125259896 180.80279446021711 H 0.0 **** 0.06
29656 C 38.785936654985164 127.23592058038544 146.61487976348178 C 0.0 **** -0.24
29657 H 38.601102060245694 128.30038592313383 146.76048566490948 H 0.0 **** 0.06
29658 H 37.944415802560854 126.66384155559511 147.0059444819246 H 0.0 **** 0.06
29659 H 39.69628259648505 126.94983229755395 147.14070111983486 H 0.0 **** 0.06
29660 H 38.901458865419784 127.0304091834593 145.55035213815398 H 0.0 **** 0.06
29661 C 128.28734748670195 111.63198813352547 103.2548833714448 C 0.0 **** -0.24
29662 H 128.79785495837206 112.34776906255978 103.89976720931475 H 0.0 **** 0.06
29663 H 127.28172044452204 111.45219462100717 103.6362033561195 H 0.0 **** 0.06
29664 H 128.84417808217245 110.6950888518523 103.24193019209861 H 0.0 **** 0.06
29665 H 128.22674108441623 112.0325063674429 102.24378331223272 H 0.0 **** 0.06
29666 C 98.35578011041889 70.32143052712678 5.080236717417861 C 0.0 **** -0.24
29667 H 97.36346319930612 70.22540105740734 5.521412264300672 H 0.0 **** 0.06
29668 H 98.5212499600413 69.50442125158716 4.37905279201199 H 0.0 **** 0.06
29669 H 99.10846522416097 70.28315971120315 5.868687645369306 H 0.0 **** 0.06
29670 H 98.42807416893777 71.2735674246104 4.554928948760349 H 0.0 **** 0.06
29671 C 68.47340827559628 141.6255726694502 147.21539258291028 C 0.0 **** -0.24
29672 H 67.46172853849276 141.36576975468637 146.90284349471835 H 0.0 **** 0.06
29673 H 69.16862285086404 141.41926897805666 146.40106472079168 H 0.0 **** 0.06
29674 H 68.7478982622095 141.03203205207433 148.08774008186356 H 0.0 **** 0.06
29675 H 68.51440524507953 142.6846018504168 147.4686331544973 H 0.0 **** 0.06
29676 C 77.55636093474426 108.60203347184171 64.59761206480385 C 0.0 **** -0.24
29677 H 77.52416669027815 109.13932150392066 65.54602573596668 H 0.0 **** 0.06
29678 H 76.55872386707298 108.58171245378003 64.1581058426101 H 0.0 **** 0.06
29679 H 77.89925828880692 107.58198574610043 64.76972364207657 H 0.0 **** 0.06
29680 H 78.24254282561091 109.10651829755932 63.91816242773707 H 0.0 **** 0.06
29681 C 70.60088219384988 58.42838528604668 178.75230626564195 C 0.0 **** -0.24
29682 H 71.0777196922707 58.455575536975786 177.7719797488325 H 0.0 **** 0.06
29683 H 69.87205616275173 57.6186583391611 178.77916213769694 H 0.0 **** 0.06
29684 H 70.09771606657637 59.37787091100253 178.93746911665545 H 0.0 **** 0.06
29685 H 71.3578963572021 58.26281103132038 179.51980618189657 H 0.0 **** 0.06
29686 C 74.79678932598443 118.5897066485851 140.5088547309195 C 0.0 **** -0.24
29687 H 75.88285072548676 118.55548944055899 140.41991545404466 H 0.0 **** 0.06
29688 H 74.4184632061841 119.47629621718563 140.00096633477852 H 0.0 **** 0.06
29689 H 74.52037593116889 118.62904325921495 141.56320176413914 H 0.0 **** 0.06
29690 H 74.36677936158534 117.69785638100562 140.05437825944767 H 0.0 **** 0.06
29691 C 54.42310629934114 156.7461600598939 23.510058288229914 C 0.0 **** -0.24
29692 H 55.471730792806795 156.90159551595187 23.25592867526362 H 0.0 **** 0.06
29693 H 53.80424908021355 156.9441599852216 22.634851948608883 H 0.0 **** 0.06
29694 H 54.14082516666281 157.42349683777744 24.316450023266015 H 0.0 **** 0.06
29695 H 54.27720048532014 155.71556411425368 23.834574649822514 H 0.0 **** 0.06
29696 C 143.82997741523155 166.9636638014351 95.72066121017279 C 0.0 **** -0.24
29697 H 144.1460590243684 166.13992372530782 96.3604424684914 H 0.0 **** 0.06
29698 H 144.16064008951943 166.77666375610235 94.69849998645692 H 0.0 **** 0.06
29699 H 144.26935172581057 167.8937113006527 96.08186508282277 H 0.0 **** 0.06
29700 H 142.74262066677545 167.04230505521247 95.74234623244728 H 0.0 **** 0.06
29701 C 5.604719448864387 57.54530225244173 3.5800291564695996 C 0.0 **** -0.24
29702 H 5.308675605482335 58.53123314843657 3.2204506580953876 H 0.0 **** 0.06
29703 H 4.794698576020096 56.836808215992505 3.403740258289936 H 0.0 **** 0.06
29704 H 5.818132136435054 57.59679158149811 4.6471763861180335 H 0.0 **** 0.06
29705 H 6.496952656930148 57.21791345879069 3.0464124015107785 H 0.0 **** 0.06
29706 C 162.84638215425258 132.61158992318394 173.02693484649257 C 0.0 **** -0.24
29707 H 163.39893126669392 131.84021601047635 173.56306274162276 H 0.0 **** 0.06
29708 H 161.86716201641298 132.7442938193542 173.48923454662966 H 0.0 **** 0.06
29709 H 162.71907361715742 132.31146669993035 171.98683824041117 H 0.0 **** 0.06
29710 H 163.39814992879846 133.55059932986455 173.0688516264045 H 0.0 **** 0.06
29711 C 161.79166507446544 147.61422569953328 77.18079309970693 C 0.0 **** -0.24
29712 H 161.80279586128412 148.38879641157416 76.41517789930208 H 0.0 **** 0.06
29713 H 162.26868827150378 147.99091023858276 78.08634101356711 H 0.0 **** 0.06
29714 H 162.33397668060977 146.7398012214091 76.82220378383875 H 0.0 **** 0.06
29715 H 160.76095549019755 147.33637377645638 77.40166281475564 H 0.0 **** 0.06
29716 C 36.07499417332127 20.410117816846224 168.8144686818831 C 0.0 **** -0.24
29717 H 35.84469846181972 19.41030247706817 169.18565541759756 H 0.0 **** 0.06
29718 H 35.66036389052127 20.529054328816983 167.81301912286153 H 0.0 **** 0.06
29719 H 37.15563891060012 20.544432300018798 168.7796418454975 H 0.0 **** 0.06
29720 H 35.63699411194865 21.153754987960298 169.48003540296412 H 0.0 **** 0.06
29721 C 63.565535587855436 57.43176592835226 112.93946662424878 C 0.0 **** -0.24
29722 H 63.99623971551949 57.1832853913146 111.96945077785267 H 0.0 **** 0.06
29723 H 62.78896637678889 56.70721374001957 113.18733712263275 H 0.0 **** 0.06
29724 H 63.13123546392396 58.43053038000011 112.89897800983073 H 0.0 **** 0.06
29725 H 64.34484681199993 57.404004340164164 113.70102796296817 H 0.0 **** 0.06
29726 C 43.09797768035858 157.59620836106583 121.3768752773587 C 0.0 **** -0.24
29727 H 43.44422199962014 156.89335376300497 120.61977183415827 H 0.0 **** 0.06
29728 H 42.87192147139763 157.05688861613612 122.2969905843383 H 0.0 **** 0.06
29729 H 42.1990279456752 158.09937284629123 121.02040754420607 H 0.0 **** 0.06
29730 H 43.87556642912216 158.3354752199856 121.56958391007701 H 0.0 **** 0.06
29731 C 33.7610461287568 25.504295696769432 4.642105576814075 C 0.0 **** -0.24
29732 H 33.58301522250359 26.383444650563177 4.023513258939339 H 0.0 **** 0.06
29733 H 33.045762553535056 25.487276768520346 5.464573286227015 H 0.0 **** 0.06
29734 H 34.77455524040019 25.54099947733222 5.0414443731846745 H 0.0 **** 0.06
29735 H 33.6423700097088 24.605628213306005 4.037258420953997 H 0.0 **** 0.06
29736 C 132.19781550732762 51.63359296899367 85.38816483708156 C 0.0 **** -0.24
29737 H 133.09009250059012 51.27589828501597 85.90403952745832 H 0.0 **** 0.06
29738 H 131.64206381446456 50.782957815470596 84.99360780061986 H 0.0 **** 0.06
29739 H 132.49138604003986 52.28835370382396 84.56813126027428 H 0.0 **** 0.06
29740 H 131.57126542364432 52.18531527579293 86.08830112994993 H 0.0 **** 0.06
29741 C 19.463951815766563 177.7924492209525 45.252966312995525 C 0.0 **** -0.24
29742 H 20.275819597504665 178.48918129239306 45.46310080357311 H 0.0 **** 0.06
29743 H 19.878554218808404 176.80797458655366 45.03512941156984 H 0.0 **** 0.06
29744 H 18.89651195508941 178.14640671657884 44.392825955471935 H 0.0 **** 0.06
29745 H 18.807712644170294 177.72802365804455 46.120720225230016 H 0.0 **** 0.06
29746 C 174.80849092832045 162.82606315685229 7.455534924202823 C 0.0 **** -0.24
29747 H 174.55726321076804 162.08571892026742 6.696433881767376 H 0.0 **** 0.06
29748 H 175.72474972711285 163.34195444799417 7.169973493394025 H 0.0 **** 0.06
29749 H 174.95403451228486 162.32940483061387 8.414374803287984 H 0.0 **** 0.06
29750 H 173.9958390376152 163.54760563238085 7.540650891844564 H 0.0 **** 0.06
29751 C 35.74825967883632 117.37211150257757 130.91456489386815 C 0.0 **** -0.24
29752 H 35.73927522755372 118.35796408823266 130.4484947816182 H 0.0 **** 0.06
29753 H 36.77392710959731 117.0043690957876 130.96599689484873 H 0.0 **** 0.06
29754 H 35.14523933336051 116.68515696064436 130.32147530236887 H 0.0 **** 0.06
29755 H 35.33621227351347 117.4425181573341 131.92131769700995 H 0.0 **** 0.06
29756 C 143.03157032954525 77.01510653195002 105.4486325751137 C 0.0 **** -0.24
29757 H 143.2382811995134 77.95174036040252 105.96711697126823 H 0.0 **** 0.06
29758 H 142.74641979768074 77.22661266491204 104.41803289770287 H 0.0 **** 0.06
29759 H 142.2176018431669 76.49375039916715 105.95152165658628 H 0.0 **** 0.06
29760 H 143.92538821576025 76.39029365938157 105.4582167126389 H 0.0 **** 0.06
29761 C 58.73510209945891 150.83043668038678 28.659531132072857 C 0.0 **** -0.24
29762 H 58.72489216447207 150.40460918241385 29.662223024351817 H 0.0 **** 0.06
29763 H 58.36101562635443 150.09412887740527 27.948810039666057 H 0.0 **** 0.06
29764 H 59.75420258972409 151.10919280291 28.39282425017518 H 0.0 **** 0.06
29765 H 58.09875802416292 151.71509899359617 28.635258228679277 H 0.0 **** 0.06
29766 C 11.043426887662328 31.352182122344757 107.24525565674502 C 0.0 **** -0.24
29767 H 12.091428743423798 31.630118715815016 107.35765995274899 H 0.0 **** 0.06
29768 H 10.86746093136724 31.004471828721833 106.22824196473512 H 0.0 **** 0.06
29769 H 10.41458951560891 32.220312142848556 107.44771118019851 H 0.0 **** 0.06
29770 H 10.800537355924824 30.556777646415412 107.95044129133488 H 0.0 **** 0.06
29771 C 98.67957023702928 104.0432435304199 81.71296208523229 C 0.0 **** -0.24
29772 H 98.89766038639254 104.50983092572882 82.67340117379095 H 0.0 **** 0.06
29773 H 97.72318607270302 103.52302579904476 81.77145328665088 H 0.0 **** 0.06
29774 H 99.46699631295769 103.33124330568707 81.46782907490639 H 0.0 **** 0.06
29775 H 98.62938180921935 104.8098132200099 80.93911816188908 H 0.0 **** 0.06
29776 C 132.45204348390047 171.92920736917898 70.58106532159793 C 0.0 **** -0.24
29777 H 132.05967383502542 172.78218464327432 71.1349093391938 H 0.0 **** 0.06
29778 H 131.84503162506854 171.76328508014896 69.69100085028678 H 0.0 **** 0.06
29779 H 132.4226148261635 171.0419559984852 71.2129500453987 H 0.0 **** 0.06
29780 H 133.4821621797858 172.1313060819955 70.28703478866181 H 0.0 **** 0.06
29781 C 58.329845238809014 5.649853847074951 49.68732268228257 C 0.0 **** -0.24
29782 H 57.55994587591306 6.421296786973713 49.71151221353546 H 0.0 **** 0.06
29783 H 59.30946173151216 6.117997958425917 49.590870716730876 H 0.0 **** 0.06
29784 H 58.15648015765453 4.989377788521367 48.83795216339564 H 0.0 **** 0.06
29785 H 58.292073612113086 5.071695193563272 50.610710057466406 H 0.0 **** 0.06
29786 C 167.5190524218445 38.43173006121472 96.79708885845709 C 0.0 **** -0.24
29787 H 166.51985538908346 38.41601711852621 96.36231334657599 H 0.0 **** 0.06
29788 H 168.2452051713342 38.109493484689665 96.05053668641422 H 0.0 **** 0.06
29789 H 167.55401799393238 37.75723887490858 97.6534400983674 H 0.0 **** 0.06
29790 H 167.75807642203395 39.444421920701416 97.12227356935459 H 0.0 **** 0.06
29791 C 26.47801427383672 126.59329730854478 67.91044093475193 C 0.0 **** -0.24
29792 H 27.12478949901461 127.35761757519816 67.47863111250558 H 0.0 **** 0.06
29793 H 26.757796972620127 126.42544902579687 68.94976760274835 H 0.0 **** 0.06
29794 H 26.587879292857423 125.66478855231662 67.34993889476061 H 0.0 **** 0.06
29795 H 25.441148447167393 126.92531257923554 67.86208320637854 H 0.0 **** 0.06
29796 C 10.885056702595847 56.50263500095252 63.77247020457591 C 0.0 **** -0.24
29797 H 10.188580082295829 55.709730541680926 64.04427746726337 H 0.0 **** 0.06
29798 H 11.86811972385243 56.28164237628454 64.18800205021212 H 0.0 **** 0.06
29799 H 10.526567837502512 57.45217932810539 64.16999840415369 H 0.0 **** 0.06
29800 H 10.955363452003837 56.56652239882277 62.68649058626676 H 0.0 **** 0.06
29801 C 4.772467983774902 10.33306487659555 101.82134834269658 C 0.0 **** -0.24
29802 H 4.963598610565668 11.263491909191863 101.28721168458782 H 0.0 **** 0.06
29803 H 5.660553419503287 9.702600630653073 101.78202344731426 H 0.0 **** 0.06
29804 H 3.936085236406427 9.812116158515472 101.35535832620042 H 0.0 **** 0.06
29805 H 4.529634668624027 10.554050808022104 102.86079991268366 H 0.0 **** 0.06
29806 C 44.42096218467492 138.2034879524537 113.26346115394136 C 0.0 **** -0.24
29807 H 43.90312587023283 139.14549446235816 113.44415053347177 H 0.0 **** 0.06
29808 H 43.93502175963715 137.6741083674715 112.44338887587958 H 0.0 **** 0.06
29809 H 44.38543887457797 137.5905844028241 114.16356429897911 H 0.0 **** 0.06
29810 H 45.45925591765581 138.40476611402028 113.00133223796047 H 0.0 **** 0.06
29811 C 31.320514453309585 141.1198492602457 92.23311746163114 C 0.0 **** -0.24
29812 H 30.624380029997823 141.8577608724591 92.63088958435117 H 0.0 **** 0.06
29813 H 31.710231883301446 141.46808160446 91.27652772455593 H 0.0 **** 0.06
29814 H 30.802414196277624 140.17121948402195 92.09090970656041 H 0.0 **** 0.06
29815 H 32.14380862773946 140.9828378723289 92.93364149819854 H 0.0 **** 0.06
29816 C 145.88907490478095 160.25914941592282 139.1921130061129 C 0.0 **** -0.24
29817 H 145.3266420352319 161.1515758913138 139.4668685703159 H 0.0 **** 0.06
29818 H 146.86947612696957 160.28830179347668 139.66826630270617 H 0.0 **** 0.06
29819 H 146.01196539273042 160.22713004928636 138.10910604661473 H 0.0 **** 0.06
29820 H 145.3496150112134 159.37256546030528 139.52377586211793 H 0.0 **** 0.06
29821 C 12.937645001666255 127.6214638184287 154.20942010722663 C 0.0 **** -0.24
29822 H 12.731413415994922 126.68092201963115 154.72165155524056 H 0.0 **** 0.06
29823 H 12.932935236123626 127.45670805769326 153.13164798990255 H 0.0 **** 0.06
29824 H 13.914558754300685 127.99457357891028 154.51579728223587 H 0.0 **** 0.06
29825 H 12.171819778125553 128.35125445892447 154.46906538760192 H 0.0 **** 0.06
29826 C 65.27788624567661 62.91822976693646 26.900184166654128 C 0.0 **** -0.24
29827 H 64.3626769518046 63.3673968645319 26.51583640112409 H 0.0 **** 0.06
29828 H 65.41477422924243 61.933659702906894 26.45301660126708 H 0.0 **** 0.06
29829 H 65.2079480033268 62.819473996055876 27.98326601652326 H 0.0 **** 0.06
29830 H 66.12787979461994 63.55291825125509 26.64730892750231 H 0.0 **** 0.06
29831 C 79.2881666881705 147.12554045190268 95.97818918422782 C 0.0 **** -0.24
29832 H 79.59141102137461 147.5728626093039 95.03139188045832 H 0.0 **** 0.06
29833 H 79.4409939207817 147.84465265166102 96.78469083585792 H 0.0 **** 0.06
29834 H 79.88710961434751 146.23558241016804 96.16735942457653 H 0.0 **** 0.06
29835 H 78.2343970064822 146.8517037166332 95.93000978401086 H 0.0 **** 0.06
29836 C 48.974895233811765 36.48359473785217 38.61978123156864 C 0.0 **** -0.24
29837 H 48.87780834795757 35.92401575285379 37.68929863336929 H 0.0 **** 0.06
29838 H 48.43879436070307 35.963620645671995 39.41393119799116 H 0.0 **** 0.06
29839 H 48.55456822689899 37.48057100025977 38.48935542338671 H 0.0 **** 0.06
29840 H 50.02906135240988 36.56537143520393 38.88514840379928 H 0.0 **** 0.06
29841 C 108.31117860823788 131.92223145857463 82.2901133714127 C 0.0 **** -0.24
29842 H 109.35669886770744 131.61498227490483 82.30442001103165 H 0.0 **** 0.06
29843 H 108.19722728034974 132.85066368812767 82.84948091366277 H 0.0 **** 0.06
29844 H 107.69760059610651 131.1450900598607 82.74594298350348 H 0.0 **** 0.06
29845 H 107.99164092381024 132.07764342186817 81.25909000509444 H 0.0 **** 0.06
29846 C 117.42340066889652 175.6309350363956 155.55537757215154 C 0.0 **** -0.24
29847 H 117.58042423712824 176.33021141402398 154.73457035251982 H 0.0 **** 0.06
29848 H 116.49357148257512 175.87801321099164 156.06897026620578 H 0.0 **** 0.06
29849 H 118.2551412386368 175.70193137567895 156.25612396147497 H 0.0 **** 0.06
29850 H 117.36455081367872 174.61683364117906 155.16250434663445 H 0.0 **** 0.06
29851 C 101.00038219363752 52.14016849695466 133.69969855667227 C 0.0 **** -0.24
29852 H 101.99468800391757 51.875451129845274 134.05778654286223 H 0.0 **** 0.06
29853 H 100.92067585057542 51.89912549823151 132.6393011997722 H 0.0 **** 0.06
29854 H 100.83450559331742 53.20773314864539 133.8429431793055 H 0.0 **** 0.06
29855 H 100.25190379988193 51.57748489581614 134.25768298676343 H 0.0 **** 0.06
29856 C 126.66367092015044 156.1354669046906 35.871980966220576 C 0.0 **** -0.24
29857 H 127.3318292679724 155.27759297630615 35.94137178781523 H 0.0 **** 0.06
29858 H 126.76187219787074 156.74606341142862 36.770010920444065 H 0.0 **** 0.06
29859 H 125.6349438208777 155.78737041197823 35.779662241006804 H 0.0 **** 0.06
29860 H 126.92559942952657 156.73052981343307 34.99772189279099 H 0.0 **** 0.06
29861 C 16.13878383453639 136.46443028669773 50.231476326244206 C 0.0 **** -0.24
29862 H 15.287435504235475 136.07908022789866 49.66909767098343 H 0.0 **** 0.06
29863 H 16.01649200472336 136.22098224371126 51.286840775063666 H 0.0 **** 0.06
29864 H 16.193526289786384 137.54671594381097 50.1110753239785 H 0.0 **** 0.06
29865 H 17.056061429779348 136.00967132540706 49.85756529214399 H 0.0 **** 0.06
29866 C 77.70040787738914 129.2938085124299 168.3870015786157 C 0.0 **** -0.24
29867 H 78.44862858021325 129.1291139459271 167.61093143290736 H 0.0 **** 0.06
29868 H 78.14300939442099 129.10032291441547 169.3641006434758 H 0.0 **** 0.06
29869 H 76.85847981476715 128.62048225379567 168.22917817813772 H 0.0 **** 0.06
29870 H 77.35437482275617 130.32629637763455 168.3428735034108 H 0.0 **** 0.06
29871 C 146.69938556945604 55.346535956127695 56.399049758632145 C 0.0 **** -0.24
29872 H 146.1716005441119 54.46656417225694 56.76483925467562 H 0.0 **** 0.06
29873 H 146.16810319237516 55.75625722394523 55.53863826433724 H 0.0 **** 0.06
29874 H 147.71032033819094 55.06691532747823 56.10274323244181 H 0.0 **** 0.06
29875 H 146.74626511530005 56.096230665756366 57.18879560997493 H 0.0 **** 0.06
29876 C 23.757686184828373 97.2257044347614 50.748639783524524 C 0.0 **** -0.24
29877 H 23.706739843842072 96.18325753119926 51.0611221958397 H 0.0 **** 0.06
29878 H 23.377588905472123 97.31847710832788 49.73138974201109 H 0.0 **** 0.06
29879 H 24.792833288288662 97.56569995284492 50.78272628683379 H 0.0 **** 0.06
29880 H 23.152741168739027 97.83641510040759 51.41979729494851 H 0.0 **** 0.06
29881 C 66.27798321720559 152.79653000927584 97.65653808461843 C 0.0 **** -0.24
29882 H 65.29363639820154 153.11048706172053 98.00308052059893 H 0.0 **** 0.06
29883 H 66.42309078989716 153.1248359904135 96.62747913055551 H 0.0 **** 0.06
29884 H 66.35062219470657 151.70918742044785 97.704881458552 H 0.0 **** 0.06
29885 H 67.04529596625706 153.23964532597176 98.29150763469505 H 0.0 **** 0.06
29886 C 167.0217745146162 87.09776315404878 83.77264377723324 C 0.0 **** -0.24
29887 H 166.32050644547073 87.56922362526342 84.46193000865684 H 0.0 **** 0.06
29888 H 167.19008481681217 87.75629407102406 82.92046888964188 H 0.0 **** 0.06
29889 H 166.60936951190035 86.15110477235493 83.42555538657432 H 0.0 **** 0.06
29890 H 167.96748408712935 86.91654892134852 84.2847162351942 H 0.0 **** 0.06
29891 C 86.5619569252241 178.26043245771598 35.273414833328786 C 0.0 **** -0.24
29892 H 85.53136313349687 178.51297179326966 35.52526938268498 H 0.0 **** 0.06
29893 H 86.57038961380032 177.5612947422768 34.43729599948425 H 0.0 **** 0.06
29894 H 87.0444097209894 177.80113986848198 36.1372250118153 H 0.0 **** 0.06
29895 H 87.10056162037573 179.16648393647597 34.995807082841296 H 0.0 **** 0.06
29896 C 26.619533399314264 140.50641889324322 153.55716691921202 C 0.0 **** -0.24
29897 H 25.667588985245743 140.9031713556206 153.2044805475153 H 0.0 **** 0.06
29898 H 26.90814408682118 139.65360967639873 152.94119555554258 H 0.0 **** 0.06
29899 H 26.519291509492575 140.18861746997885 154.59422147092303 H 0.0 **** 0.06
29900 H 27.384046805587275 141.28067745570013 153.48678003609217 H 0.0 **** 0.06
29901 C 47.99023051385197 41.730447260665926 90.7450173233665 C 0.0 **** -0.24
29902 H 48.86336414898062 41.97092785517691 90.13957032411007 H 0.0 **** 0.06
29903 H 47.144269486657905 41.51464102283887 90.09237808699841 H 0.0 **** 0.06
29904 H 47.74825247741707 42.577277189819 91.38732259920299 H 0.0 **** 0.06
29905 H 48.20541135191502 40.856535778346995 91.36105248985588 H 0.0 **** 0.06
29906 C 33.212035283934654 1.3205258409473117 79.70590897075209 C 0.0 **** -0.24
29907 H 33.401411910457114 2.3795467200214375 79.52983614104903 H 0.0 **** 0.06
29908 H 32.71394176885849 1.195902914408066 80.66706365311938 H 0.0 **** 0.06
29909 H 34.15849388178361 0.779341902408845 79.71430218678574 H 0.0 **** 0.06
29910 H 32.576638334942885 0.9275865661649902 78.91178062893039 H 0.0 **** 0.06
29911 C 20.68224145897318 91.78980978384334 177.55295326146697 C 0.0 **** -0.24
29912 H 19.648934003601937 91.70252816120785 177.88711034592362 H 0.0 **** 0.06
29913 H 21.22446120291461 92.45850450604138 178.22054254356877 H 0.0 **** 0.06
29914 H 20.703626833740117 92.19038076344924 176.54014929016878 H 0.0 **** 0.06
29915 H 21.151599735230626 90.80540247893845 177.56410959693616 H 0.0 **** 0.06
29916 C 54.62035157430381 29.64994790711252 121.94028587144639 C 0.0 **** -0.24
29917 H 54.778131786076756 30.674683551331782 122.27476695708454 H 0.0 **** 0.06
29918 H 55.537114885899655 29.076438856969418 122.08246814793934 H 0.0 **** 0.06
29919 H 54.35119729901163 29.64978746120012 120.88436622655088 H 0.0 **** 0.06
29920 H 53.81530682545849 29.198767747864608 122.5212357881433 H 0.0 **** 0.06
29921 C 145.14144110178935 134.745779949292 76.95714887997228 C 0.0 **** -0.24
29922 H 144.72718997132858 133.78059600624835 76.66477867950303 H 0.0 **** 0.06
29923 H 146.17058773722465 134.82150492624652 76.60350168378989 H 0.0 **** 0.06
29924 H 145.12265159072348 134.83519129837958 78.0432717670732 H 0.0 **** 0.06
29925 H 144.54586307523505 135.5450957159665 76.51595449329214 H 0.0 **** 0.06
29926 C 38.1186832277166 30.10696428221968 151.96305886056086 C 0.0 **** -0.24
29927 H 38.11543310575787 31.090668080164704 151.49285182684838 H 0.0 **** 0.06
29928 H 38.81873619163157 30.106149205443273 152.79787352209365 H 0.0 **** 0.06
29929 H 38.42190902742051 29.356806491232305 151.23316588927213 H 0.0 **** 0.06
29930 H 37.1177835128898 29.875672184077217 152.32687073279507 H 0.0 **** 0.06
29931 C 70.0458763600214 150.9461261535945 8.549081898418876 C 0.0 **** -0.24
29932 H 70.79750823355778 150.181095180282 8.352711033364756 H 0.0 **** 0.06
29933 H 70.46558383953996 151.70691842051872 9.206662390364443 H 0.0 **** 0.06
29934 H 69.17930241378264 150.4896171480758 9.02774618150795 H 0.0 **** 0.06
29935 H 69.74188198509631 151.40511985025785 7.608634369045205 H 0.0 **** 0.06
29936 C 16.51008005770686 151.08935489623673 40.472579866036966 C 0.0 **** -0.24
29937 H 17.320847237142743 150.8053838102149 41.1438960208978 H 0.0 **** 0.06
29938 H 16.525033071346627 150.445048335897 39.594217869724616 H 0.0 **** 0.06
29939 H 16.63946633539274 152.1276749013361 40.16572135816658 H 0.0 **** 0.06
29940 H 15.556780191331939 150.97932961332737 40.98926561084882 H 0.0 **** 0.06
29941 C 144.17742849103166 104.1595419003457 10.215939696740818 C 0.0 **** -0.24
29942 H 143.86465898070713 104.72488031533221 9.337406201859359 H 0.0 **** 0.06
29943 H 143.7148122409562 103.1727299047899 10.195284015094686 H 0.0 **** 0.06
29944 H 143.8666895018168 104.6881969136975 11.117028215158932 H 0.0 **** 0.06
29945 H 145.26219687559202 104.05299299079222 10.211440275882545 H 0.0 **** 0.06
29946 C 88.240665174321 84.03774691438207 131.93188635289448 C 0.0 **** -0.24
29947 H 87.7066569514193 84.91123434033435 132.30714402315124 H 0.0 **** 0.06
29948 H 88.37703966660824 84.12993071409572 130.85409067471727 H 0.0 **** 0.06
29949 H 87.6641948157763 83.13890918047355 132.15025304525187 H 0.0 **** 0.06
29950 H 89.21407860381156 83.97185589670796 132.41685440006523 H 0.0 **** 0.06
29951 C 108.05917175292758 65.74443928645509 104.99346491008839 C 0.0 **** -0.24
29952 H 107.49021507723869 65.84485329493108 104.0693335968121 H 0.0 **** 0.06
29953 H 108.09113501880312 66.70656537309694 105.50664631537649 H 0.0 **** 0.06
29954 H 109.07388578359779 65.42223510879715 104.76132217704492 H 0.0 **** 0.06
29955 H 107.58096586589404 65.00615037915512 105.6357996660916 H 0.0 **** 0.06
29956 C 91.55400178279352 168.68476959623095 169.74218910190572 C 0.0 **** -0.24
29957 H 91.29172778920567 167.70434947124602 169.34541828943242 H 0.0 **** 0.06
29958 H 92.45689846846231 169.0470282263164 169.24954658540125 H 0.0 **** 0.06
29959 H 91.73157027655314 168.60709174665922 170.814853982807 H 0.0 **** 0.06
29960 H 90.73635978859538 169.38141673211598 169.55872333913567 H 0.0 **** 0.06
29961 C 153.56056148733578 43.88780517063759 51.604299102537425 C 0.0 **** -0.24
29962 H 152.56357310035946 44.11363851953173 51.980445055201926 H 0.0 **** 0.06
29963 H 153.4835494737176 43.20476336755701 50.7577281165259 H 0.0 **** 0.06
29964 H 154.14968346742512 43.42232183946874 52.39433196197707 H 0.0 **** 0.06
29965 H 154.0463555475401 44.809436458309875 51.284883625178736 H 0.0 **** 0.06
29966 C 133.60555857142162 103.51000690835924 52.77748666677745 C 0.0 **** -0.24
29967 H 134.37462148158988 103.49824614989514 52.00540294186101 H 0.0 **** 0.06
29968 H 133.95061791745178 102.9431699097441 53.643279525399976 H 0.0 **** 0.06
29969 H 132.6923733468294 103.05842999383613 52.38819701812457 H 0.0 **** 0.06
29970 H 133.40395123494045 104.5398762602692 53.07427445994011 H 0.0 **** 0.06
29971 C 174.34311773916488 143.02811837939336 32.0074613281688 C 0.0 **** -0.24
29972 H 173.99429772921056 142.1473468849726 31.46836529088614 H 0.0 **** 0.06
29973 H 173.7511966659993 143.8940062548627 31.71099717934942 H 0.0 **** 0.06
29974 H 175.3921180725756 143.20564058213378 31.76932367009215 H 0.0 **** 0.06
29975 H 174.2367734154799 142.863937847379 33.07976072696604 H 0.0 **** 0.06
29976 C 123.456554620907 83.38386884383438 168.0947796372184 C 0.0 **** -0.24
29977 H 122.80276717872881 82.80642895429102 168.7478764910934 H 0.0 **** 0.06
29978 H 123.07052943894838 84.39953500952119 168.00083180833187 H 0.0 **** 0.06
29979 H 123.49221320398097 82.91629614912121 167.1111157776017 H 0.0 **** 0.06
29980 H 124.45995307268554 83.41290463300511 168.51987120308826 H 0.0 **** 0.06
29981 C 13.716250082490092 13.627048652839335 71.70061820098374 C 0.0 **** -0.24
29982 H 13.006443862318719 13.495165249778154 72.51668452077325 H 0.0 **** 0.06
29983 H 14.685967003776625 13.223509258287464 71.99368037359596 H 0.0 **** 0.06
29984 H 13.817759608737248 14.688388362583026 71.47466645310799 H 0.0 **** 0.06
29985 H 13.356471146504703 13.099409180893133 70.81685913473608 H 0.0 **** 0.06
29986 C 42.12382934437187 65.28184507595392 49.46842976049726 C 0.0 **** -0.24
29987 H 41.462751777675464 65.69623774952316 50.228696485218336 H 0.0 **** 0.06
29988 H 41.747839769029014 64.3084082394775 49.15167913789469 H 0.0 **** 0.06
29989 H 43.12626137290255 65.16800288418133 49.88102562313259 H 0.0 **** 0.06
29990 H 42.158415276286405 65.95466326519715 48.610906064864594 H 0.0 **** 0.06
29991 C 60.01585046627174 103.40496410864525 19.042311225489662 C 0.0 **** -0.24
29992 H 59.88278111410193 104.45044881412748 19.321581089671902 H 0.0 **** 0.06
29993 H 60.855756237654546 102.98523470836612 19.595362645880954 H 0.0 **** 0.06
29994 H 60.21490907568845 103.33822432150392 17.97230054503892 H 0.0 **** 0.06
29995 H 59.109084361839635 102.84833023742145 19.278747951016705 H 0.0 **** 0.06
29996 C 5.078885728265867 170.7236112460307 128.2034714038253 C 0.0 **** -0.24
29997 H 5.649934944697755 171.6464621620613 128.10323002047954 H 0.0 **** 0.06
29998 H 4.601861364536347 170.48702404729448 127.2519349421401 H 0.0 **** 0.06
29999 H 4.315254409798449 170.85084061772164 128.97078376480903 H 0.0 **** 0.06
30000 H 5.7477756481598306 169.91165819885438 128.48759790795253 H 0.0 **** 0.06
30001 C 100.41855714307634 158.12955617615444 25.94014941276737 C 0.0 **** -0.24
30002 H 99.61481971435198 157.50276977570456 26.32846803872917 H 0.0 **** 0.06
30003 H 100.91445417685127 157.61479522975395 25.11735620805422 H 0.0 **** 0.06
30004 H 101.13963602427258 158.32698000015026 26.732828050980203 H 0.0 **** 0.06
30005 H 100.00293844302068 159.07141371230284 25.58239274389331 H 0.0 **** 0.06
30006 C 107.1237070664646 28.67330988872726 87.13393726431649 C 0.0 **** -0.24
30007 H 107.40433306414864 29.36255605648995 86.33777200339655 H 0.0 **** 0.06
30008 H 107.25134301476022 27.647938651902848 86.78830996399655 H 0.0 **** 0.06
30009 H 106.08108249788457 28.839099359695126 87.40607920553266 H 0.0 **** 0.06
30010 H 107.75843173270438 28.84606457261441 88.00345713030443 H 0.0 **** 0.06
30011 C 71.4554503611269 20.77629845477469 150.4473008524237 C 0.0 **** -0.24
30012 H 71.84910935683193 19.788125081298233 150.68611741758923 H 0.0 **** 0.06
30013 H 71.0733425416978 21.24325398461761 151.35589127031608 H 0.0 **** 0.06
30014 H 70.64883921159434 20.679488124813275 149.7213025389876 H 0.0 **** 0.06
30015 H 72.2501702699734 21.391974856222816 150.02841286139036 H 0.0 **** 0.06
30016 C 28.522389697762833 166.73602249176653 21.050399611937394 C 0.0 **** -0.24
30017 H 28.35954040398957 167.68534368285694 20.538728054798526 H 0.0 **** 0.06
30018 H 28.811087903816798 166.9272419131547 22.084586672072078 H 0.0 **** 0.06
30019 H 29.315278631504327 166.18372208879782 20.54729153674404 H 0.0 **** 0.06
30020 H 27.602796588208236 166.15135173432478 21.031718739178984 H 0.0 **** 0.06
30021 C 76.98659040500456 98.34349723363493 119.5294965896221 C 0.0 **** -0.24
30022 H 76.10498216946962 98.62277002442846 118.95226786682336 H 0.0 **** 0.06
30023 H 77.27304559687832 99.17090873430368 120.17877310845229 H 0.0 **** 0.06
30024 H 77.8075934419607 98.11477826630602 118.85002546516897 H 0.0 **** 0.06
30025 H 76.76039693654968 97.46668178671052 120.135033140157 H 0.0 **** 0.06
30026 C 13.013359611728845 98.39447164588364 131.93488411682227 C 0.0 **** -0.24
30027 H 12.138987482511709 98.37578713281971 132.58618332277547 H 0.0 **** 0.06
30028 H 13.314103363980571 99.42705190999146 131.76102921458727 H 0.0 **** 0.06
30029 H 12.76680663375381 97.92181544244744 130.9837925743982 H 0.0 **** 0.06
30030 H 13.830852755989781 97.85172687057815 132.410115056731 H 0.0 **** 0.06
30031 C 36.48526840903435 15.647586277179016 106.63520891944255 C 0.0 **** -0.24
30032 H 37.54685651664022 15.510480247966484 106.83915737245032 H 0.0 **** 0.06
30033 H 36.331887679537886 15.739426239763304 105.55879580233669 H 0.0 **** 0.06
30034 H 36.13447739289455 16.55243853918131 107.13102783694579 H 0.0 **** 0.06
30035 H 35.929147962615446 14.788776562060775 107.00992649862023 H 0.0 **** 0.06
30036 C 94.08399111353816 63.60758004978268 5.3035805599736605 C 0.0 **** -0.24
30037 H 94.31930487403326 63.144892835509566 4.345678000951992 H 0.0 **** 0.06
30038 H 93.68727067506745 64.6092130694329 5.135936391753745 H 0.0 **** 0.06
30039 H 94.98959946044664 63.67070901701619 5.907851730253796 H 0.0 **** 0.06
30040 H 93.34125921872084 63.00386424120964 5.825239377413027 H 0.0 **** 0.06
30041 C 140.69229482269066 149.48218394523974 78.92587835645577 C 0.0 **** -0.24
30042 H 141.21132177329758 149.19948668689545 78.00957727713353 H 0.0 **** 0.06
30043 H 141.42339191286146 149.75458571348673 79.68741476267729 H 0.0 **** 0.06
30044 H 140.0956756400421 148.64140644406677 79.27828306931713 H 0.0 **** 0.06
30045 H 140.04085731629635 150.33238029668064 78.72601170344535 H 0.0 **** 0.06
30046 C 181.07093991215615 87.07237580421231 145.10717077990404 C 0.0 **** -0.24
30047 H 180.63645073591096 86.14361675433757 144.73743013331878 H 0.0 **** 0.06
30048 H 180.27893915918315 87.80327825646914 145.27405339202832 H 0.0 **** 0.06
30049 H 181.77551040338204 87.4616452137504 144.37113603049204 H 0.0 **** 0.06
30050 H 181.59334440850768 86.88087621088185 146.04366411891107 H 0.0 **** 0.06
30051 C 159.6047272123743 27.97270830961935 26.198463448558144 C 0.0 **** -0.24
30052 H 159.38171333003993 27.280818738854293 25.385020737835063 H 0.0 **** 0.06
30053 H 158.9055789748449 28.808989782127014 26.16541147852419 H 0.0 **** 0.06
30054 H 160.62327763879517 28.346203773184627 26.08774056033961 H 0.0 **** 0.06
30055 H 159.5083228637414 27.455051643671183 27.152689906888313 H 0.0 **** 0.06
30056 C 51.976230703642244 47.14896363548442 180.96595113318998 C 0.0 **** -0.24
30057 H 52.696006784032136 47.66293730613876 180.32860912780498 H 0.0 **** 0.06
30058 H 52.13933825300285 46.0725413870278 180.90336151037428 H 0.0 **** 0.06
30059 H 50.9652279611618 47.3830296422214 180.63363967734892 H 0.0 **** 0.06
30060 H 52.10556958464011 47.47716342695571 181.9975022588353 H 0.0 **** 0.06
30061 C 28.939824484551536 67.854449979208 169.01886282140478 C 0.0 **** -0.24
30062 H 28.462820479376305 68.72833009024272 169.46216191253916 H 0.0 **** 0.06
30063 H 28.766549637596 67.85342785502587 167.9420382385062 H 0.0 **** 0.06
30064 H 28.51676175155501 66.94924739989125 169.45485317273224 H 0.0 **** 0.06
30065 H 30.011276693754454 67.88671557755747 169.21484098822697 H 0.0 **** 0.06
30066 C 99.04487227573749 177.03667833955035 63.82012042429949 C 0.0 **** -0.24
30067 H 99.76979082430428 177.63135397424085 64.3781360249896 H 0.0 **** 0.06
30068 H 98.9385553741124 177.44432214336777 62.814742578513034 H 0.0 **** 0.06
30069 H 98.08174459391226 177.0680038580301 64.32921877981805 H 0.0 **** 0.06
30070 H 99.3910183663212 176.00556652363926 63.760374021672106 H 0.0 **** 0.06
30071 C 67.0714040310331 71.28178476303154 128.55476296363065 C 0.0 **** -0.24
30072 H 65.99704288668364 71.4133742113123 128.43185781107036 H 0.0 **** 0.06
30073 H 67.31327471410307 70.21891332638012 128.52487534963217 H 0.0 **** 0.06
30074 H 67.38122430795431 71.69761076307822 129.51421203994585 H 0.0 **** 0.06
30075 H 67.59489611577436 71.79682483933999 127.74957347734721 H 0.0 **** 0.06
30076 C 164.15277532478257 54.20280724608487 119.98998021647408 C 0.0 **** -0.24
30077 H 164.00352283869157 54.948937066395956 119.21020824764385 H 0.0 **** 0.06
30078 H 165.04240230437955 53.61480714620892 119.76489561782869 H 0.0 **** 0.06
30079 H 163.28430572777728 53.545480348502494 120.03540354657311 H 0.0 **** 0.06
30080 H 164.28109371246694 54.702741603472916 120.9509648350449 H 0.0 **** 0.06
30081 C 163.3982480028018 145.69554648324208 64.01025494880645 C 0.0 **** -0.24
30082 H 162.78333206542425 146.59218329640987 63.95042921807175 H 0.0 **** 0.06
30083 H 164.44705540438989 145.9646604770877 63.88204779395355 H 0.0 **** 0.06
30084 H 163.10257282622902 144.99887703347042 63.225587350289516 H 0.0 **** 0.06
30085 H 163.2603901388833 145.22436968162037 64.98417231153195 H 0.0 **** 0.06
30086 C 44.04013353668644 138.43869362710774 59.77133383564296 C 0.0 **** -0.24
30087 H 43.737183638061154 138.31604707157265 58.731964065036664 H 0.0 **** 0.06
30088 H 45.11921559010824 138.30711441773946 59.85253853000097 H 0.0 **** 0.06
30089 H 43.53557907650401 137.69380100936672 60.38683375633627 H 0.0 **** 0.06
30090 H 43.76882892241872 139.4374210270381 60.112667597540224 H 0.0 **** 0.06
30091 C 30.9203929169323 76.36234137586102 143.08703402759545 C 0.0 **** -0.24
30092 H 29.996971230011752 76.93795912147623 143.01602003877963 H 0.0 **** 0.06
30093 H 31.3673275008983 76.27011061603126 142.0962154901266 H 0.0 **** 0.06
30094 H 30.700011256791598 75.36989338983695 143.4801018082494 H 0.0 **** 0.06
30095 H 31.615685049443712 76.87213296583107 143.75297375171965 H 0.0 **** 0.06
30096 C 57.55339699501539 36.64776726151979 81.33740593361074 C 0.0 **** -0.24
30097 H 57.89737745869073 35.979235184483855 80.5483199679727 H 0.0 **** 0.06
30098 H 56.55352402370863 37.009175211595334 81.09700273186024 H 0.0 **** 0.06
30099 H 58.23560227067671 37.492898582522 81.4214496189548 H 0.0 **** 0.06
30100 H 57.526165971632366 36.10674564140854 82.28388597567954 H 0.0 **** 0.06
30101 C 182.22314948302318 116.01125370816743 85.52171081762584 C 0.0 **** -0.24
30102 H 181.73435609784838 116.80376471105336 86.0873747391531 H 0.0 **** 0.06
30103 H 181.96412493826801 116.10487191732744 84.46659361808577 H 0.0 **** 0.06
30104 H 181.89047782393794 115.04167080437259 85.89266894166273 H 0.0 **** 0.06
30105 H 183.30335830211382 116.09379573164006 85.63990588175092 H 0.0 **** 0.06
30106 C 129.03391721670795 22.188070265898034 110.17374080817312 C 0.0 **** -0.24
30107 H 128.2452743832731 22.7051435746433 110.7188252023585 H 0.0 **** 0.06
30108 H 129.96593290849654 22.24973835194959 110.73650646706308 H 0.0 **** 0.06
30109 H 129.16746245778427 22.655385107517873 109.19767119433543 H 0.0 **** 0.06
30110 H 128.75755949800453 21.141725958358734 110.04069425760575 H 0.0 **** 0.06
30111 C 23.87600526875937 48.09713881624222 10.161690712076279 C 0.0 **** -0.24
30112 H 23.65573202814963 47.1874388533588 10.720270195955209 H 0.0 **** 0.06
30113 H 23.891481922974307 48.94739565691219 10.84286845575673 H 0.0 **** 0.06
30114 H 23.10757053414339 48.25278449734668 9.403659793103117 H 0.0 **** 0.06
30115 H 24.848153064163554 48.00020722016953 9.678149300015662 H 0.0 **** 0.06
30116 C 73.04275629700115 62.16936166043652 48.33677435026077 C 0.0 **** -0.24
30117 H 74.00835430861159 61.69757346733863 48.521695333876025 H 0.0 **** 0.06
30118 H 73.07166048028357 63.2025949199612 48.68300685495139 H 0.0 **** 0.06
30119 H 72.26440560477928 61.627305827206015 48.87457455118181 H 0.0 **** 0.06
30120 H 72.82791566943322 62.150116937124494 47.2683313202038 H 0.0 **** 0.06
30121 C 173.21821464675898 108.14873591959055 170.31964683209455 C 0.0 **** -0.24
30122 H 173.36473448270104 108.25001448953402 171.39468819678237 H 0.0 **** 0.06
30123 H 172.27492325519484 107.63570921597996 170.12887904924725 H 0.0 **** 0.06
30124 H 174.0379413924649 107.57051103311174 169.89408439380088 H 0.0 **** 0.06
30125 H 173.19428212281076 109.13646313779758 169.86089907625706 H 0.0 **** 0.06
30126 C 89.27875589819405 153.8758519791152 127.26731820008564 C 0.0 **** -0.24
30127 H 89.09931225338244 153.12373772620066 128.0357877830968 H 0.0 **** 0.06
30128 H 89.1338153289638 154.86970515066463 127.69033647154419 H 0.0 **** 0.06
30129 H 88.58054504477485 153.72596511880488 126.44365084995508 H 0.0 **** 0.06
30130 H 90.30024819206761 153.78206239165368 126.89932450558001 H 0.0 **** 0.06
30131 C 39.51941482340072 27.871166067534404 170.302110102619 C 0.0 **** -0.24
30132 H 38.900022294085375 27.004316715457236 170.07271208894716 H 0.0 **** 0.06
30133 H 39.62601653159891 27.965302770424273 171.3833537153807 H 0.0 **** 0.06
30134 H 39.04938534395342 28.76979334448616 169.9025908063308 H 0.0 **** 0.06
30135 H 40.50269398812463 27.743627509610704 169.8493934555255 H 0.0 **** 0.06
30136 C 163.64142285591635 157.3160683811399 163.5122570246873 C 0.0 **** -0.24
30137 H 164.68724212531328 157.1342705595334 163.2634398512899 H 0.0 **** 0.06
30138 H 163.4307986469766 158.38259409088408 163.43726568852014 H 0.0 **** 0.06
30139 H 163.44746726016308 156.97752166878217 164.52986485934463 H 0.0 **** 0.06
30140 H 163.00224616774705 156.76927298971867 162.81906417769818 H 0.0 **** 0.06
30141 C 18.367020816691003 83.833489158638 5.3690307929919 C 0.0 **** -0.24
30142 H 19.41842020927011 83.87096681747447 5.652821363320378 H 0.0 **** 0.06
30143 H 18.257377997008128 83.24297535170747 4.459091083796466 H 0.0 **** 0.06
30144 H 18.002874977045288 84.84573436317967 5.192243275563179 H 0.0 **** 0.06
30145 H 17.790334292368776 83.37433575682738 6.172345292023465 H 0.0 **** 0.06
30146 C 103.04506216432277 139.56210408577596 56.50460517378799 C 0.0 **** -0.24
30147 H 102.6874013307053 140.0947279778457 57.38547682569369 H 0.0 **** 0.06
30148 H 102.19480092005848 139.15351787232942 55.957473092806765 H 0.0 **** 0.06
30149 H 103.70348349215668 138.75016662688284 56.813675207359594 H 0.0 **** 0.06
30150 H 103.59365655562387 140.2510670008512 55.862015359278345 H 0.0 **** 0.06
30151 C 122.98353541370871 23.548469390452297 26.42285439143302 C 0.0 **** -0.24
30152 H 123.64733394690337 23.160635249955803 25.649768002371843 H 0.0 **** 0.06
30153 H 123.32130316660492 23.20185243744031 27.399321485977225 H 0.0 **** 0.06
30154 H 121.96939591106043 23.19215875670777 26.241748985754327 H 0.0 **** 0.06
30155 H 122.99550002122284 24.63784939445263 26.397986668376234 H 0.0 **** 0.06
30156 C 173.00879703139077 136.10752822401275 13.807153453050326 C 0.0 **** -0.24
30157 H 173.83981654897048 135.40315923812653 13.849923391374901 H 0.0 **** 0.06
30158 H 172.08938447983158 135.57109122439516 13.572909424204482 H 0.0 **** 0.06
30159 H 173.20345933892654 136.8505086586407 13.033723415400438 H 0.0 **** 0.06
30160 H 172.90448375178127 136.60556384524273 14.770994528211908 H 0.0 **** 0.06
30161 C 46.322311890125704 71.86165973207719 34.59833923478487 C 0.0 **** -0.24
30162 H 45.40287363068168 72.22639934572639 34.14101150668073 H 0.0 **** 0.06
30163 H 46.20856671644192 70.80722633035263 34.85030471610695 H 0.0 **** 0.06
30164 H 46.52859525202126 72.4315689533405 35.50411515043464 H 0.0 **** 0.06
30165 H 47.1487600536517 71.98068343916464 33.89839128752847 H 0.0 **** 0.06
30166 C 178.72033049441742 22.827058575374167 155.13379830279072 C 0.0 **** -0.24
30167 H 178.08859516059718 23.491057339198676 155.72319329325202 H 0.0 **** 0.06
30168 H 178.14626101509174 21.949426720382007 154.83589742327706 H 0.0 **** 0.06
30169 H 179.57738387632446 22.516035512249005 155.73093104481256 H 0.0 **** 0.06
30170 H 179.0685938078613 23.352596410293188 154.24417926550274 H 0.0 **** 0.06
30171 C 140.89583915306565 152.42695478980522 21.545581499687245 C 0.0 **** -0.24
30172 H 141.45152854618613 151.6901210482604 20.965733506786222 H 0.0 **** 0.06
30173 H 141.48730856704157 152.72812270402363 22.410722647346688 H 0.0 **** 0.06
30174 H 139.95620788706128 151.9891670449485 21.882482578292468 H 0.0 **** 0.06
30175 H 140.6895677128132 153.29788122766422 20.92357700432754 H 0.0 **** 0.06
30176 C 84.18699461808808 11.740875266590308 167.41435485807182 C 0.0 **** -0.24
30177 H 83.1650269756258 11.48330318134839 167.1378207726645 H 0.0 **** 0.06
30178 H 84.65470326299511 10.890152019708239 167.90914463570743 H 0.0 **** 0.06
30179 H 84.17537080697966 12.595170058827222 168.09123864336686 H 0.0 **** 0.06
30180 H 84.75265165737743 11.995782394353057 166.51718381706468 H 0.0 **** 0.06
30181 C 102.88070622285785 151.00817491313222 178.2200973692191 C 0.0 **** -0.24
30182 H 102.98508765467228 151.9643962537225 177.70712209200008 H 0.0 **** 0.06
30183 H 103.86908255906768 150.6109410214052 178.45253624621824 H 0.0 **** 0.06
30184 H 102.34834626591719 150.30692618920838 177.57639440863085 H 0.0 **** 0.06
30185 H 102.31939021429183 151.15081735154357 179.1442287828259 H 0.0 **** 0.06
30186 C 28.124327814536855 121.6970763261798 121.07050646064543 C 0.0 **** -0.24
30187 H 28.845665884001505 122.35503135958032 120.58697683342668 H 0.0 **** 0.06
30188 H 28.654027164612273 120.88945194030941 121.57771535495137 H 0.0 **** 0.06
30189 H 27.455728032197158 121.27690397664253 120.31916839399285 H 0.0 **** 0.06
30190 H 27.544705612216205 122.26467488173193 121.79796046344582 H 0.0 **** 0.06
30191 C 65.7232197027087 173.7930155819425 59.56619072960666 C 0.0 **** -0.24
30192 H 64.77458765724705 173.70749801368868 59.0356189942149 H 0.0 **** 0.06
30193 H 65.82547226736568 172.96080877922154 60.26239443858046 H 0.0 **** 0.06
30194 H 65.74681168422693 174.7336897544033 60.11786447746721 H 0.0 **** 0.06
30195 H 66.54413422103806 173.771283702925 58.84897844675638 H 0.0 **** 0.06
30196 C 113.81306745952453 21.872953825163023 1.3836532102652228 C 0.0 **** -0.24
30197 H 113.48941146722693 20.87716428642443 1.0817370934136505 H 0.0 **** 0.06
30198 H 113.14715477017857 22.252152412636974 2.1593071947435973 H 0.0 **** 0.06
30199 H 113.78512208635694 22.54069731225627 0.5222003263940138 H 0.0 **** 0.06
30200 H 114.8305815143356 21.821801289334417 1.7713682265095514 H 0.0 **** 0.06
30201 C 101.71191712519332 143.02890459955842 49.7620421500406 C 0.0 **** -0.24
30202 H 102.57987491719861 143.64871438683497 49.98689868531534 H 0.0 **** 0.06
30203 H 101.84930203516215 142.55271811333193 48.79102299983674 H 0.0 **** 0.06
30204 H 100.81732504007273 143.65168783863203 49.73862385746577 H 0.0 **** 0.06
30205 H 101.6023669534414 142.26418071752153 50.53076999430189 H 0.0 **** 0.06
30206 C 9.96145346844289 80.24746246625585 3.0848366998170604 C 0.0 **** -0.24
30207 H 9.282772117893963 79.6495682769314 3.6926537050149477 H 0.0 **** 0.06
30208 H 10.965875567097882 80.20039345215798 3.5080141681316093 H 0.0 **** 0.06
30209 H 9.621031260524049 81.28293265881916 3.0711411485444273 H 0.0 **** 0.06
30210 H 9.977444370803838 79.85645818237083 2.067342565946774 H 0.0 **** 0.06
30211 C 54.808353548910986 59.34585199252186 43.9239924662528 C 0.0 **** -0.24
30212 H 54.94779257190038 59.5441003174346 42.86213669506236 H 0.0 **** 0.06
30213 H 55.70146275053844 58.86256439750582 44.323737997183116 H 0.0 **** 0.06
30214 H 53.948430322926924 58.69047667421694 44.06166452858406 H 0.0 **** 0.06
30215 H 54.637347480580104 60.285172974185485 44.44990822235377 H 0.0 **** 0.06
30216 C 99.24265922414054 105.6466044987929 64.62261160675286 C 0.0 **** -0.24
30217 H 99.4613992557093 105.38782460237837 65.65792223257284 H 0.0 **** 0.06
30218 H 100.0234840601857 106.30442983957789 64.24006124918296 H 0.0 **** 0.06
30219 H 98.28069755349935 106.1565668496275 64.5714402583904 H 0.0 **** 0.06
30220 H 99.20522702995123 104.73799405517866 64.02192429347355 H 0.0 **** 0.06
30221 C 90.73697852147036 145.40213371737718 122.08284435741666 C 0.0 **** -0.24
30222 H 90.22118168721097 145.86782808837677 121.24261714914792 H 0.0 **** 0.06
30223 H 90.98002600165974 144.3695622637033 121.83155272087652 H 0.0 **** 0.06
30224 H 90.09089236602786 145.42102394159747 122.96062007287884 H 0.0 **** 0.06
30225 H 91.65394389186427 145.9513626794984 122.29459751676552 H 0.0 **** 0.06
30226 C 101.43558472386381 75.27410285385464 51.266278692794174 C 0.0 **** -0.24
30227 H 101.01709817850563 74.50750935916493 51.918894049138984 H 0.0 **** 0.06
30228 H 100.75742449846108 75.45033662055907 50.432372410106225 H 0.0 **** 0.06
30229 H 102.40075384176727 74.93984064930673 50.886579206791694 H 0.0 **** 0.06
30230 H 101.56733644612088 76.19716204427505 51.83018166327963 H 0.0 **** 0.06
30231 C 155.2308293916709 114.468684531423 66.71744320145153 C 0.0 **** -0.24
30232 H 155.5992587712678 115.45389403790519 67.00240876251063 H 0.0 **** 0.06
30233 H 154.27130766238972 114.28535449882857 67.20134972361232 H 0.0 **** 0.06
30234 H 155.94705500391012 113.70799311307265 67.02990572775593 H 0.0 **** 0.06
30235 H 155.10590706056536 114.42716826030714 65.63474924212393 H 0.0 **** 0.06
30236 C 151.51710807009272 21.533536810314345 102.49319997773574 C 0.0 **** -0.24
30237 H 152.07223849439652 22.229673280016755 101.8647172154516 H 0.0 **** 0.06
30238 H 150.55419320760473 21.97259523111181 102.75828126134661 H 0.0 **** 0.06
30239 H 152.08552683968657 21.330270465739957 103.40046468278342 H 0.0 **** 0.06
30240 H 151.3544704842139 20.602378358400493 101.95051746090854 H 0.0 **** 0.06
30241 C 97.12039884225698 169.1887196604907 85.62719412881323 C 0.0 **** -0.24
30242 H 97.37215213503458 168.86230252509694 86.63693198144078 H 0.0 **** 0.06
30243 H 96.83099611103614 168.3248983929234 85.02840430785807 H 0.0 **** 0.06
30244 H 97.98826511382492 169.67036416405185 85.17513428165624 H 0.0 **** 0.06
30245 H 96.2932710243436 169.8963239815274 85.67017116967214 H 0.0 **** 0.06
30246 C 129.39792345323457 72.8923882642473 46.58154069331039 C 0.0 **** -0.24
30247 H 130.33211383505977 73.27088522883092 46.16630732681119 H 0.0 **** 0.06
30248 H 128.89561146930725 72.27210293044527 45.83881049064439 H 0.0 **** 0.06
30249 H 128.75548676809086 73.72958535250041 46.851974550316214 H 0.0 **** 0.06
30250 H 129.6107620129335 72.29608496931925 47.46905491995011 H 0.0 **** 0.06
30251 C 102.62171932658016 13.749672771245905 5.283159972499895 C 0.0 **** -0.24
30252 H 103.2011262832432 14.522162443802856 5.789127023124351 H 0.0 **** 0.06
30253 H 103.28315111309861 12.937529494398333 4.984072002440065 H 0.0 **** 0.06
30254 H 102.14302058417296 14.173240570759098 4.400307666791164 H 0.0 **** 0.06
30255 H 101.85850634775564 13.366122762059192 5.961060945088725 H 0.0 **** 0.06
30256 C 40.376061477608374 140.12150055171998 66.73910862468881 C 0.0 **** -0.24
30257 H 39.57300619249578 139.47791039422992 66.38266194779565 H 0.0 **** 0.06
30258 H 40.182168700884645 140.40737057752813 67.77335390719392 H 0.0 **** 0.06
30259 H 40.42673971058724 141.0168189895872 66.11813276680816 H 0.0 **** 0.06
30260 H 41.324122540235635 139.58596734309316 66.68105012775516 H 0.0 **** 0.06
30261 C 52.489976042771616 45.6903992379613 14.664158327120077 C 0.0 **** -0.24
30262 H 52.280501458577305 45.353073989246994 15.680085233808974 H 0.0 **** 0.06
30263 H 53.41605079492413 46.266383135308914 14.657266360671251 H 0.0 **** 0.06
30264 H 51.66896968819498 46.31748745978625 14.314369349150546 H 0.0 **** 0.06
30265 H 52.592407230608444 44.82691254199251 14.008516742024533 H 0.0 **** 0.06
30266 C 166.04132894785027 20.85735568628175 31.25280358196534 C 0.0 **** -0.24
30267 H 166.50317254310957 21.48476465193926 30.491328162772078 H 0.0 **** 0.06
30268 H 165.09109694971252 21.296587035867788 31.55829067056611 H 0.0 **** 0.06
30269 H 166.70347413139953 20.78740800970499 32.11638824284839 H 0.0 **** 0.06
30270 H 165.86807704788094 19.8607475762756 30.847140655213025 H 0.0 **** 0.06
30271 C 129.93150371685385 183.90655473775024 101.99882119047624 C 0.0 **** -0.24
30272 H 130.61899655707276 183.79832910531513 101.15968879314715 H 0.0 **** 0.06
30273 H 129.82672060908186 182.94968946477934 102.50897967717378 H 0.0 **** 0.06
30274 H 128.95857714648673 184.23165338007192 101.63156773421588 H 0.0 **** 0.06
30275 H 130.32312810724358 184.64919323159342 102.69492017804129 H 0.0 **** 0.06
30276 C 143.3189757695161 75.9843809692559 32.58076884694327 C 0.0 **** -0.24
30277 H 143.35247746337552 76.99189345935034 32.99565026093654 H 0.0 **** 0.06
30278 H 144.239351881186 75.78762437664892 32.03041347607507 H 0.0 **** 0.06
30279 H 142.46606962117147 75.89729552470507 31.906944229801184 H 0.0 **** 0.06
30280 H 143.2170722315082 75.26101670857567 33.39026202093177 H 0.0 **** 0.06
30281 C 135.51025951956836 178.98724478990715 126.26687689860542 C 0.0 **** -0.24
30282 H 136.0416460343331 178.1335886928254 126.68762623462833 H 0.0 **** 0.06
30283 H 134.4364881516122 178.84936484775926 126.40079694684361 H 0.0 **** 0.06
30284 H 135.73588528085003 179.06798870122637 125.20323230746045 H 0.0 **** 0.06
30285 H 135.8260764760567 179.89831165622377 126.77565994833843 H 0.0 **** 0.06
30286 C 63.08832528827743 180.28704028428194 175.57120753972302 C 0.0 **** -0.24
30287 H 63.8902021013827 180.9509729733147 175.2479579005343 H 0.0 **** 0.06
30288 H 62.860971837208254 179.57762049782121 174.77510870550802 H 0.0 **** 0.06
30289 H 62.19962979375347 180.87495296443092 175.79951073275214 H 0.0 **** 0.06
30290 H 63.403819314351324 179.74423355347034 176.4625804981563 H 0.0 **** 0.06
30291 C 78.13002858480456 170.9279486271797 81.92056987336619 C 0.0 **** -0.24
30292 H 78.2268233500044 170.3442667746838 81.00453185104172 H 0.0 **** 0.06
30293 H 77.07902576814689 170.989010486539 82.20323556853575 H 0.0 **** 0.06
30294 H 78.52094706002492 171.93221326508274 81.75366369103985 H 0.0 **** 0.06
30295 H 78.69495565468685 170.4468683989313 82.71801989908028 H 0.0 **** 0.06
30296 C 138.770235176605 2.8523473286900867 145.5969364735099 C 0.0 **** -0.24
30297 H 139.22594187230072 2.4572272816180316 144.68862929164453 H 0.0 **** 0.06
30298 H 139.45672457237225 3.552892407253239 146.07248065377604 H 0.0 **** 0.06
30299 H 138.55449350052442 2.031736131957018 146.2808722502197 H 0.0 **** 0.06
30300 H 137.84397788382097 3.367524531085735 145.34332213934036 H 0.0 **** 0.06
30301 C 106.08969420696945 123.04976872064549 92.78237667807487 C 0.0 **** -0.24
30302 H 106.40448343980694 122.00907692204953 92.69942063567673 H 0.0 **** 0.06
30303 H 105.03834797266921 123.13339936276503 92.50632163808278 H 0.0 **** 0.06
30304 H 106.69135957948475 123.66540759915262 92.11439921447895 H 0.0 **** 0.06
30305 H 106.22390554900397 123.38812260914546 93.80971514252475 H 0.0 **** 0.06
30306 C 148.27625554751398 138.00579622994354 170.64290327560826 C 0.0 **** -0.24
30307 H 148.77087871488587 137.26536672581938 171.2715426271319 H 0.0 **** 0.06
30308 H 148.57080843349345 139.00604723439812 170.96120329201256 H 0.0 **** 0.06
30309 H 147.196005181288 137.89752390332063 170.7364959890256 H 0.0 **** 0.06
30310 H 148.56823659339665 137.85415112964233 169.60441294765556 H 0.0 **** 0.06
30311 C 11.541941580262005 41.173012639534136 67.84704984848855 C 0.0 **** -0.24
30312 H 11.820967025798438 40.44639048591216 68.60979252967523 H 0.0 **** 0.06
30313 H 10.799877078849306 41.85994251310183 68.25361101350892 H 0.0 **** 0.06
30314 H 11.123809692240286 40.6531764496483 66.98546328541977 H 0.0 **** 0.06
30315 H 12.42532623083207 41.73249553579103 67.53964489431688 H 0.0 **** 0.06
30316 C 2.903401448710781 173.93591427757116 153.69567670185265 C 0.0 **** -0.24
30317 H 2.1467481199026395 174.59511506220238 153.26968088068733 H 0.0 **** 0.06
30318 H 2.415493616568398 173.09463401077159 154.1892431671684 H 0.0 **** 0.06
30319 H 3.497771624880045 174.48886814990584 154.42380409399792 H 0.0 **** 0.06
30320 H 3.5513397021401545 173.56546979477108 152.9019127295549 H 0.0 **** 0.06
30321 C 83.99702898083277 3.1709909901142055 97.03498854110343 C 0.0 **** -0.24
30322 H 83.05106841492224 3.0469141103210973 96.50829423932247 H 0.0 **** 0.06
30323 H 84.00783440399076 4.1381095128737115 97.53789546601568 H 0.0 **** 0.06
30324 H 84.81915620519122 3.122777061145655 96.3214476600996 H 0.0 **** 0.06
30325 H 84.10808905283757 2.3764304713645856 97.77334456882492 H 0.0 **** 0.06
30326 C 175.32697858347694 131.36769724441257 105.95284880163761 C 0.0 **** -0.24
30327 H 175.38762520898916 131.47487206924427 104.86955478730054 H 0.0 **** 0.06
30328 H 176.1111074108745 130.69142016784542 106.29462458142244 H 0.0 **** 0.06
30329 H 174.35206878743398 130.9616040127732 106.2229571972665 H 0.0 **** 0.06
30330 H 175.45763596194942 132.34250663854647 106.42211913297588 H 0.0 **** 0.06
30331 C 27.103575892761228 162.85803286962718 24.81865312956637 C 0.0 **** -0.24
30332 H 27.57693645680709 162.27638635439914 25.610311828611145 H 0.0 **** 0.06
30333 H 26.12760263972322 162.43081165532993 24.588223948355648 H 0.0 **** 0.06
30334 H 27.731228863397803 162.83605187614936 23.92723853968039 H 0.0 **** 0.06
30335 H 26.980771856395336 163.88980271967398 25.150613294421277 H 0.0 **** 0.06
30336 C 43.15320813910802 123.76429954655909 155.03081707089055 C 0.0 **** -0.24
30337 H 42.36719594481349 123.08679691291447 154.69744734889252 H 0.0 **** 0.06
30338 H 43.40407096207275 124.45460907826599 154.22564507107273 H 0.0 **** 0.06
30339 H 44.037027349675554 123.18783446173266 155.3041373472573 H 0.0 **** 0.06
30340 H 42.80453298500555 124.32691320694089 155.89699192381727 H 0.0 **** 0.06
30341 C 5.51762047661407 61.02421310264654 116.36055237169937 C 0.0 **** -0.24
30342 H 6.299521478069096 60.29490644822921 116.57187436849439 H 0.0 **** 0.06
30343 H 4.541175263961605 60.5723075437398 116.53682344530905 H 0.0 **** 0.06
30344 H 5.588318957270701 61.342473068699675 115.32127154352652 H 0.0 **** 0.06
30345 H 5.640802619644148 61.88794971526714 117.01487539422367 H 0.0 **** 0.06
30346 C 112.38413064451139 112.67996004347403 71.07919686572245 C 0.0 **** -0.24
30347 H 113.07383184522287 113.14171323999189 71.78588393056366 H 0.0 **** 0.06
30348 H 112.94921868828233 112.1258021941414 70.32943426640495 H 0.0 **** 0.06
30349 H 111.79304450917049 113.45515925474355 70.59052135800272 H 0.0 **** 0.06
30350 H 111.72056373510976 111.99814932403281 71.61083156729148 H 0.0 **** 0.06
30351 C 178.878295222633 6.958949354204719 126.96761732396182 C 0.0 **** -0.24
30352 H 178.58677005016426 7.642762345959767 127.76522138964306 H 0.0 **** 0.06
30353 H 178.7391007751907 5.930889765788038 127.30129042709989 H 0.0 **** 0.06
30354 H 179.92508238725355 7.12220691919299 126.71430541119987 H 0.0 **** 0.06
30355 H 178.25873155128298 7.142449947255187 126.08896677413675 H 0.0 **** 0.06
30356 C 67.41433717641867 34.74004774816527 16.30126390929692 C 0.0 **** -0.24
30357 H 67.79470856912118 35.47945771350135 17.007001044435924 H 0.0 **** 0.06
30358 H 66.60634651628173 34.175423222487154 16.76786505867838 H 0.0 **** 0.06
30359 H 68.21869420406107 34.05956146832523 16.020269993565194 H 0.0 **** 0.06
30360 H 67.03840231816052 35.24651280230279 15.41210391084735 H 0.0 **** 0.06
30361 C 145.8341527352842 52.502994612252294 99.6314173521573 C 0.0 **** -0.24
30362 H 145.21095553379143 51.78222518087938 99.10161073664175 H 0.0 **** 0.06
30363 H 145.72697550285642 52.35497593671268 100.70570682001203 H 0.0 **** 0.06
30364 H 145.52077481293952 53.51349752993684 99.36961687772806 H 0.0 **** 0.06
30365 H 146.87611448661124 52.360547466368985 99.346233441439 H 0.0 **** 0.06
30366 C 178.53514822580001 52.59779210845048 107.90484346442247 C 0.0 **** -0.24
30367 H 178.9765591454416 51.676494364850456 108.28654395065399 H 0.0 **** 0.06
30368 H 179.23394718438135 53.422313015334126 108.0472115112625 H 0.0 **** 0.06
30369 H 177.61131445498023 52.807162262579 108.44303454323222 H 0.0 **** 0.06
30370 H 178.31921882174527 52.483036269818726 106.84223160026119 H 0.0 **** 0.06
30371 C 136.92612470988593 114.7520381512226 75.04563842391822 C 0.0 **** -0.24
30372 H 138.0022439174345 114.61854939948027 74.93206209023526 H 0.0 **** 0.06
30373 H 136.59547917792463 115.58047217937461 74.42004276443605 H 0.0 **** 0.06
30374 H 136.69593249379102 114.96979602247835 76.08884234966587 H 0.0 **** 0.06
30375 H 136.41349789979898 113.83930377129316 74.74258222633995 H 0.0 **** 0.06
30376 C 107.45421200471382 1.0444459053706225 150.80240019739068 C 0.0 **** -0.24
30377 H 108.12476251927431 0.5522789725601172 150.09777257415612 H 0.0 **** 0.06
30378 H 106.48567423140538 1.20688433649957 150.32828657282477 H 0.0 **** 0.06
30379 H 107.87919992835263 2.0029541955704246 151.09917194284793 H 0.0 **** 0.06
30380 H 107.32689174077656 0.41432051542830095 151.68261261782555 H 0.0 **** 0.06
30381 C 133.45488384829713 34.65213912136727 83.62637427271699 C 0.0 **** -0.24
30382 H 133.12319688224892 33.83497967622806 84.2673809611934 H 0.0 **** 0.06
30383 H 133.65499485478472 35.534305772306055 84.23604221031155 H 0.0 **** 0.06
30384 H 132.67594154798496 34.88214785772355 82.89880622802559 H 0.0 **** 0.06
30385 H 134.3640912686925 34.357013934769356 83.10378712848205 H 0.0 **** 0.06
30386 C 177.7141152720738 96.49036216986629 153.73112178489558 C 0.0 **** -0.24
30387 H 178.78915452993553 96.65850606374438 153.6625316786779 H 0.0 **** 0.06
30388 H 177.39686856951516 95.83766029804069 152.9174952286188 H 0.0 **** 0.06
30389 H 177.1918880443447 97.4437587308848 153.65634168780474 H 0.0 **** 0.06
30390 H 177.48007525358585 96.02108488270092 154.68654339544526 H 0.0 **** 0.06
30391 C 31.87551899122326 169.80147417327095 60.274441341139365 C 0.0 **** -0.24
30392 H 32.714153366832704 169.2633681006181 60.71746800789384 H 0.0 **** 0.06
30393 H 31.01794242582065 169.13407824702506 60.19372295883507 H 0.0 **** 0.06
30394 H 32.15584864650077 170.15606144169956 59.28186159523048 H 0.0 **** 0.06
30395 H 31.61689352767479 170.65337667228872 60.90408361181781 H 0.0 **** 0.06
30396 C 137.66528213758596 120.6565618497704 16.423565517372836 C 0.0 **** -0.24
30397 H 138.41760755103286 120.43958798022722 17.181700181497426 H 0.0 **** 0.06
30398 H 136.71163831497046 120.22147435909132 16.723111352335494 H 0.0 **** 0.06
30399 H 137.9767423316606 120.22784849723651 15.471038471933255 H 0.0 **** 0.06
30400 H 137.5561693432735 121.73598463035641 16.31807511875791 H 0.0 **** 0.06
30401 C 7.411776204129836 109.51527974693433 5.926359423576002 C 0.0 **** -0.24
30402 H 7.97194209630662 110.39989846799652 5.626380739583524 H 0.0 **** 0.06
30403 H 7.665814235150641 109.25576564547531 6.95461644406371 H 0.0 **** 0.06
30404 H 7.666023053797112 108.6837460063205 5.2677255457456695 H 0.0 **** 0.06
30405 H 6.344133625098181 109.72013202194908 5.855350962342371 H 0.0 **** 0.06
30406 C 19.296367993138176 85.91403484761645 119.2579655841174 C 0.0 **** -0.24
30407 H 18.32438196801951 86.24716340592062 118.8940330412958 H 0.0 **** 0.06
30408 H 19.736087508681635 85.2239438303144 118.53739114929554 H 0.0 **** 0.06
30409 H 19.17190924387353 85.41019208400667 120.2161528502089 H 0.0 **** 0.06
30410 H 19.952925527379534 86.77619765358804 119.38251640917115 H 0.0 **** 0.06
30411 C 138.49574270150305 97.96419977304949 67.03735512544418 C 0.0 **** -0.24
30412 H 137.79971038464163 97.15985295715335 67.27247114482061 H 0.0 **** 0.06
30413 H 138.442171436884 98.19012905694338 65.97172551081567 H 0.0 **** 0.06
30414 H 139.50887774803158 97.65326017075607 67.29287872956093 H 0.0 **** 0.06
30415 H 138.2325679731693 98.85239353725684 67.61162445134174 H 0.0 **** 0.06
30416 C 35.31221809790347 161.0602384376315 51.445645707400644 C 0.0 **** -0.24
30417 H 35.96172421267269 161.8921574924081 51.71533408541869 H 0.0 **** 0.06
30418 H 35.90696140353825 160.15136792245863 51.351527892089806 H 0.0 **** 0.06
30419 H 34.823573457268395 161.27494964303162 50.49447594670694 H 0.0 **** 0.06
30420 H 34.557435445167584 160.9224507847426 52.21916561419397 H 0.0 **** 0.06
30421 C 78.1224916237669 162.5459670768255 176.14754643364233 C 0.0 **** -0.24
30422 H 77.50206242566048 161.6522457170999 176.22324409950465 H 0.0 **** 0.06
30423 H 78.36010886077321 162.9092901908259 177.1470686755704 H 0.0 **** 0.06
30424 H 77.58288590041519 163.31680162920333 175.59811573012865 H 0.0 **** 0.06
30425 H 79.0456959177231 162.30286129970727 175.6202554237621 H 0.0 **** 0.06
30426 C 35.59329784415888 133.75823224968946 24.190425013821084 C 0.0 **** -0.24
30427 H 35.83694088347892 132.7020914033988 24.075447001715133 H 0.0 **** 0.06
30428 H 36.207521135785925 134.347621258338 23.509487635460232 H 0.0 **** 0.06
30429 H 35.78985978777827 134.066763750586 25.217030132504476 H 0.0 **** 0.06
30430 H 34.539881600524666 133.91547002577744 23.959633220052467 H 0.0 **** 0.06
30431 C 99.73131507672952 61.84586328983856 100.25272802307427 C 0.0 **** -0.24
30432 H 100.800314827808 61.650892176575084 100.16484076458931 H 0.0 **** 0.06
30433 H 99.22413853510704 61.50332680762213 99.35124255132172 H 0.0 **** 0.06
30434 H 99.56699573008234 62.91605703593481 100.37834992090905 H 0.0 **** 0.06
30435 H 99.33513858173933 61.31413512100515 101.11830108319799 H 0.0 **** 0.06
30436 C 179.89124686919945 89.0803267317624 129.54106195798516 C 0.0 **** -0.24
30437 H 180.81275451638572 89.35422298688894 130.05524176364645 H 0.0 **** 0.06
30438 H 179.19807208765954 89.92170480766231 129.567235290879 H 0.0 **** 0.06
30439 H 179.44013469802331 88.22128187848631 130.0362266541935 H 0.0 **** 0.06
30440 H 180.1151542243065 88.82701927326872 128.50445344477225 H 0.0 **** 0.06
30441 C 5.036789296488621 76.92460128610253 156.64486369482177 C 0.0 **** -0.24
30442 H 4.464357161770749 76.69605506721228 155.7462111340239 H 0.0 **** 0.06
30443 H 5.618277829320363 77.83248242608835 156.48323976439923 H 0.0 **** 0.06
30444 H 5.7107238271661345 76.09632292297135 156.8666667551164 H 0.0 **** 0.06
30445 H 4.355300768378271 77.07233658225198 157.4818260585747 H 0.0 **** 0.06
30446 C 66.71882296720146 83.69747074903904 34.056683583273184 C 0.0 **** -0.24
30447 H 65.75853638514207 83.98364077682129 33.627075888740535 H 0.0 **** 0.06
30448 H 67.34315943961498 83.24916549271994 33.28361389869565 H 0.0 **** 0.06
30449 H 66.55616771322974 82.97484845177378 34.85721758097941 H 0.0 **** 0.06
30450 H 67.21452359873655 84.57987050032489 34.45876550844514 H 0.0 **** 0.06
30451 C 164.79818155804912 14.81741362841612 142.70600480975122 C 0.0 **** -0.24
30452 H 165.38065655888744 15.193181786875442 141.86478454822134 H 0.0 **** 0.06
30453 H 165.0313866334116 13.764272346605907 142.86719795635295 H 0.0 **** 0.06
30454 H 163.7358245920118 14.92705695887571 142.49004101807208 H 0.0 **** 0.06
30455 H 165.04763820358528 15.386096419246087 143.6025998484756 H 0.0 **** 0.06
30456 C 169.4191154546592 159.24630921645414 172.80430056024676 C 0.0 **** -0.24
30457 H 169.00344473197623 158.28345784076532 173.10035870885994 H 0.0 **** 0.06
30458 H 169.02920615074683 159.5238261298186 171.82479330143423 H 0.0 **** 0.06
30459 H 170.50582877808367 159.17393996392275 172.75613192812918 H 0.0 **** 0.06
30460 H 169.13717344564023 160.00358677560757 173.5348392171447 H 0.0 **** 0.06
30461 C 22.16389800047557 116.62843060840622 106.23822665099499 C 0.0 **** -0.24
30462 H 21.37814035688868 116.21714655772347 106.87153203320321 H 0.0 **** 0.06
30463 H 21.801272490543596 116.70408817594894 105.2136896797399 H 0.0 **** 0.06
30464 H 23.03487024407653 115.97310675668597 106.26890865299941 H 0.0 **** 0.06
30465 H 22.441193854869596 117.61880066440305 106.60040415474651 H 0.0 **** 0.06
30466 C 5.78657466057544 171.5681141780937 47.53234273306484 C 0.0 **** -0.24
30467 H 6.143841300793753 170.59678556094872 47.87352393744567 H 0.0 **** 0.06
30468 H 5.2928939463224935 171.454736713917 46.566759341229954 H 0.0 **** 0.06
30469 H 6.62997981409103 172.25047068261415 47.43158715714054 H 0.0 **** 0.06
30470 H 5.0785494119350005 171.96950449443506 48.25760229501586 H 0.0 **** 0.06
30471 C 182.64661222121225 133.26381807718099 137.22734880929227 C 0.0 **** -0.24
30472 H 183.39928877322058 133.38311821382365 136.44721876904163 H 0.0 **** 0.06
30473 H 182.8354032237845 132.34053377453802 137.77488365917077 H 0.0 **** 0.06
30474 H 181.6567142489006 133.22142882630448 136.77277810559036 H 0.0 **** 0.06
30475 H 182.69584671833275 134.11003847727153 137.91220598283553 H 0.0 **** 0.06
30476 C 64.65693981163281 129.28652585589748 57.44478359609309 C 0.0 **** -0.24
30477 H 64.37212499989556 130.05045937643143 58.16890063504616 H 0.0 **** 0.06
30478 H 64.83079520021599 129.75293260736578 56.47505094723351 H 0.0 **** 0.06
30479 H 63.85633177502339 128.55285664286657 57.35835104150351 H 0.0 **** 0.06
30480 H 65.56897711126277 128.79259248447266 57.78019104429001 H 0.0 **** 0.06
30481 C 53.202974801615994 171.85830094330248 160.85254418469998 C 0.0 **** -0.24
30482 H 53.703162802605306 171.97916408076009 161.81348041108268 H 0.0 **** 0.06
30483 H 53.840324095648086 172.25111064856281 160.06036316047528 H 0.0 **** 0.06
30484 H 52.25870570084645 172.40229089754303 160.86373114872717 H 0.0 **** 0.06
30485 H 53.01085354372432 170.79989398868773 160.674371450611 H 0.0 **** 0.06
30486 C 73.17047524342524 74.4565945984601 54.620410063282264 C 0.0 **** -0.24
30487 H 72.97046091515034 74.60225281229073 55.68146109432779 H 0.0 **** 0.06
30488 H 72.85852476809578 75.34240433658414 54.067149391265204 H 0.0 **** 0.06
30489 H 72.61585875495336 73.58928665091332 54.261499417940925 H 0.0 **** 0.06
30490 H 74.23802383350977 74.2921904007155 54.47146158265062 H 0.0 **** 0.06
30491 C 93.77115931580954 52.286579029270996 161.74749692123748 C 0.0 **** -0.24
30492 H 93.16349812161218 51.386633042905885 161.84474130668943 H 0.0 **** 0.06
30493 H 94.716509374964 52.14447624187818 162.27272969573585 H 0.0 **** 0.06
30494 H 93.23820536837206 53.13318830758112 162.1807291826033 H 0.0 **** 0.06
30495 H 93.96655398907103 52.480548964706884 160.6926950646548 H 0.0 **** 0.06
30496 C 43.046154726422856 120.1237322988593 78.20879610112287 C 0.0 **** -0.24
30497 H 43.547403824175404 120.93203305799483 77.67594940788742 H 0.0 **** 0.06
30498 H 42.20606355541051 120.5279799146274 78.77327643335045 H 0.0 **** 0.06
30499 H 43.749878589212415 119.64924932077531 78.8922849285702 H 0.0 **** 0.06
30500 H 42.682514191289215 119.3881355086009 77.49213561117284 H 0.0 **** 0.06
30501 C 48.58700272322153 11.089796259598074 168.04100042094564 C 0.0 **** -0.24
30502 H 47.992921749451284 10.277765370348419 167.62198611364636 H 0.0 **** 0.06
30503 H 49.42308803204298 11.308236676201147 167.37625948105227 H 0.0 **** 0.06
30504 H 48.96709090887458 10.794097223122549 169.01901801900715 H 0.0 **** 0.06
30505 H 47.96450788434629 11.978545087701008 168.14549474648476 H 0.0 **** 0.06
30506 C 80.8777471422881 69.60321811193707 9.623152599353915 C 0.0 **** -0.24
30507 H 81.90326575382755 69.29295535070435 9.826034300280078 H 0.0 **** 0.06
30508 H 80.30240268455863 69.58407851595388 10.548309220842256 H 0.0 **** 0.06
30509 H 80.42888820100328 68.92044687751049 8.901184819654297 H 0.0 **** 0.06
30510 H 80.87929109130646 70.61408446536475 9.215053098894757 H 0.0 **** 0.06
30511 C 165.15651279977348 13.915824899160931 51.59032610231736 C 0.0 **** -0.24
30512 H 165.72610731757865 13.546493192605148 50.73808815690887 H 0.0 **** 0.06
30513 H 164.10932781036365 13.637221064895563 51.47479752838177 H 0.0 **** 0.06
30514 H 165.24060754070695 15.001425470526385 51.640742748541356 H 0.0 **** 0.06
30515 H 165.55057446869836 13.477819276180355 52.50692515228877 H 0.0 **** 0.06
30516 C 162.3060920399878 165.1527956881738 148.7203206051342 C 0.0 **** -0.24
30517 H 162.547789485662 166.15578850100283 148.36841418425513 H 0.0 **** 0.06
30518 H 161.31309109492366 164.87366852446496 148.36915754835456 H 0.0 **** 0.06
30519 H 162.32554572064555 165.1360574760382 149.80994657117208 H 0.0 **** 0.06
30520 H 163.04032238834037 164.44616245647006 148.33346580792838 H 0.0 **** 0.06
30521 C 120.37973421373671 130.2298318591292 142.07033571668603 C 0.0 **** -0.24
30522 H 120.38571043548554 129.23188865922526 141.63244074378798 H 0.0 **** 0.06
30523 H 121.04942462188258 130.87871733109512 141.50437387350195 H 0.0 **** 0.06
30524 H 120.71501362161241 130.17517660262342 143.10487224315082 H 0.0 **** 0.06
30525 H 119.36812749674796 130.63426085471156 142.0368185684706 H 0.0 **** 0.06
30526 C 93.04285365556565 139.14209108059413 101.27030034278032 C 0.0 **** -0.24
30527 H 93.86266237730818 138.54229437931713 101.66425454560648 H 0.0 **** 0.06
30528 H 92.3789814403312 138.50888271831604 100.68058240322942 H 0.0 **** 0.06
30529 H 93.4443622886276 139.93513163049272 100.63868899822022 H 0.0 **** 0.06
30530 H 92.48582645922396 139.58339410249823 102.09624930415804 H 0.0 **** 0.06
30531 C 125.1914196741123 178.71142336372242 89.57810419463806 C 0.0 **** -0.24
30532 H 126.2219976593438 178.36021031251647 89.63299299994634 H 0.0 **** 0.06
30533 H 125.18310665424968 179.79528570420393 89.46294481173584 H 0.0 **** 0.06
30534 H 124.6648161806516 178.43836564479528 90.49249339131467 H 0.0 **** 0.06
30535 H 124.69661411306095 178.25144196476765 88.72292940336649 H 0.0 **** 0.06
30536 C 57.54958524135924 84.51979680260109 7.689522682849542 C 0.0 **** -0.24
30537 H 58.55100861659605 84.91037023442027 7.873288858771417 H 0.0 **** 0.06
30538 H 57.504599364576706 83.47452177749881 7.996716071432928 H 0.0 **** 0.06
30539 H 57.3201015276976 84.59695535961731 6.627131923568982 H 0.0 **** 0.06
30540 H 56.82427558466247 85.09884191710472 8.260752067444855 H 0.0 **** 0.06
30541 C 182.10333969721427 52.546509436366506 34.971657060415964 C 0.0 **** -0.24
30542 H 182.0396554210241 53.59211080042218 34.67178801758868 H 0.0 **** 0.06
30543 H 183.1373882393936 52.300460304109095 35.21303187077234 H 0.0 **** 0.06
30544 H 181.75998343545845 51.91259004138051 34.153837365667556 H 0.0 **** 0.06
30545 H 181.47627082179736 52.38164283281873 35.846783877398934 H 0.0 **** 0.06
30546 C 149.1500334771724 117.37847806123416 111.38801898742894 C 0.0 **** -0.24
30547 H 148.44598832667276 117.61742559375169 110.59005413788232 H 0.0 **** 0.06
30548 H 148.6070386785953 116.96905082111364 112.23950259388768 H 0.0 **** 0.06
30549 H 149.67593575637073 118.28311877921986 111.69150918731204 H 0.0 **** 0.06
30550 H 149.87043804979987 116.64317552078553 111.02766940212642 H 0.0 **** 0.06
30551 C 165.26574003642412 119.61381760075399 18.528464672231053 C 0.0 **** -0.24
30552 H 164.30560544884563 119.57366107381192 18.01363809894019 H 0.0 **** 0.06
30553 H 166.048685258737 119.24596154552391 17.865104987544385 H 0.0 **** 0.06
30554 H 165.22433396098248 118.99194592544863 19.422251839083287 H 0.0 **** 0.06
30555 H 165.4837101793508 120.64320972712166 18.81169463586673 H 0.0 **** 0.06
30556 C 152.38980556302823 126.58124276413118 8.324858152338805 C 0.0 **** -0.24
30557 H 153.41580119840052 126.47578537100391 7.971833981250455 H 0.0 **** 0.06
30558 H 151.70178650060143 126.27987611309992 7.535576674501215 H 0.0 **** 0.06
30559 H 152.2034040226655 127.62063062611385 8.593883588227072 H 0.0 **** 0.06
30560 H 152.24035186440688 125.94748306700136 9.199890517580343 H 0.0 **** 0.06
30561 C 48.64560210490532 101.14054178086009 110.72372192594752 C 0.0 **** -0.24
30562 H 49.26839704351971 100.35709227571284 111.15386918646105 H 0.0 **** 0.06
30563 H 48.112486733328126 100.74638183311878 109.85838424252027 H 0.0 **** 0.06
30564 H 49.27443761564609 101.97542770484198 110.41322268798199 H 0.0 **** 0.06
30565 H 47.9279463758283 101.48362767924208 111.46834845108579 H 0.0 **** 0.06
30566 C 122.22560655055439 124.81688248235243 55.088039778327925 C 0.0 **** -0.24
30567 H 122.81623629065764 125.46641939575822 54.44287108424271 H 0.0 **** 0.06
30568 H 122.21688406026657 123.80708598229477 54.677144022481514 H 0.0 **** 0.06
30569 H 121.20503285830812 125.19411439335299 55.14751052886652 H 0.0 **** 0.06
30570 H 122.66484147921393 124.79941449128223 56.085829800143415 H 0.0 **** 0.06
30571 C 144.25390180070946 50.01129308745567 108.81292243919086 C 0.0 **** -0.24
30572 H 144.31735415054217 50.94311780859118 109.37417446142092 H 0.0 **** 0.06
30573 H 143.28089767546453 49.54982396772738 108.98247359762888 H 0.0 **** 0.06
30574 H 145.03989026408453 49.33320374717226 109.14570667987937 H 0.0 **** 0.06
30575 H 144.37848100639664 50.21857830614783 107.75021071136871 H 0.0 **** 0.06
30576 C 60.80016018859692 126.6495684451237 29.309549095076676 C 0.0 **** -0.24
30577 H 60.35221159455847 125.97941005586647 30.044033391497408 H 0.0 **** 0.06
30578 H 61.2660802013944 126.06201464388458 28.518194278035878 H 0.0 **** 0.06
30579 H 61.55403886037706 127.2692358509152 29.795172013451605 H 0.0 **** 0.06
30580 H 60.02644198626001 127.28638439800734 28.88081264227303 H 0.0 **** 0.06
30581 C 103.80570675651192 76.70605596892668 180.0531768575408 C 0.0 **** -0.24
30582 H 102.79554179858856 77.11574380531198 180.01699627699406 H 0.0 **** 0.06
30583 H 104.18072141562554 76.75589872729557 181.0754400668498 H 0.0 **** 0.06
30584 H 104.45563343415385 77.28681290443643 179.39847916855223 H 0.0 **** 0.06
30585 H 103.78915978097997 75.6682446911504 179.72093552527917 H 0.0 **** 0.06
30586 C 157.57871114910975 184.99553275118757 176.7459062963868 C 0.0 **** -0.24
30587 H 158.29887382057132 185.70454137767234 176.33672433976835 H 0.0 **** 0.06
30588 H 156.94905517664978 185.49958750066406 177.47928719067045 H 0.0 **** 0.06
30589 H 158.1101858764068 184.1747612719619 177.22583453668108 H 0.0 **** 0.06
30590 H 156.95635552307297 184.60399461975052 175.94064251741543 H 0.0 **** 0.06
30591 C 54.338932049452524 145.24593073802018 2.373614415085086 C 0.0 **** -0.24
30592 H 54.70659632125415 144.9795619350656 3.363901734530657 H 0.0 **** 0.06
30593 H 54.6679176867716 146.25523444029955 2.124123179461435 H 0.0 **** 0.06
30594 H 53.24900902335685 145.2073032684433 2.3681269361253783 H 0.0 **** 0.06
30595 H 54.73120681827157 144.54426962681714 1.6382835203409059 H 0.0 **** 0.06
30596 C 152.7931415747002 100.2818761173471 88.71202976152493 C 0.0 **** -0.24
30597 H 153.4333069058368 99.40399898198031 88.7977644716356 H 0.0 **** 0.06
30598 H 152.66482150178018 100.73509132225651 89.6950685722751 H 0.0 **** 0.06
30599 H 151.8213396695853 99.98477058749224 88.31841991390623 H 0.0 **** 0.06
30600 H 153.25407120590455 101.00261728990701 88.03685690026994 H 0.0 **** 0.06
30601 C 15.56808684408577 37.649156800853845 77.4892355763701 C 0.0 **** -0.24
30602 H 15.455767706914003 36.930329952096045 78.3007944051228 H 0.0 **** 0.06
30603 H 16.46321175312559 37.4121771288239 76.91441526647381 H 0.0 **** 0.06
30604 H 15.657225655532358 38.65375597004835 77.90396099273009 H 0.0 **** 0.06
30605 H 14.695320697583327 37.60185728552635 76.83808093337882 H 0.0 **** 0.06
30606 C 112.01196871515013 8.150871047194507 107.47481233627695 C 0.0 **** -0.24
30607 H 111.18446330375956 8.831087453377627 107.27308777321099 H 0.0 **** 0.06
30608 H 112.95352522490053 8.695330335603757 107.40911785305786 H 0.0 **** 0.06
30609 H 112.00503409114783 7.343613249337949 106.74303839585889 H 0.0 **** 0.06
30610 H 111.90273077399176 7.733704952741405 108.4765422987561 H 0.0 **** 0.06
30611 C 38.2716628235661 85.67602386127449 33.326978458388595 C 0.0 **** -0.24
30612 H 38.885802688129644 86.534199477912 33.056375113486325 H 0.0 **** 0.06
30613 H 37.31091490642423 85.74132807855678 32.81617794447925 H 0.0 **** 0.06
30614 H 38.1102167540474 85.67048728768081 34.40503962612701 H 0.0 **** 0.06
30615 H 38.77944302976822 84.75806596392253 33.03128280457412 H 0.0 **** 0.06
30616 C 36.17215892528614 160.61202682673004 179.803972089252 C 0.0 **** -0.24
30617 H 36.35613581351596 159.53906510229285 179.86006138529348 H 0.0 **** 0.06
30618 H 35.37922857498924 160.80754219525943 179.08306049392112 H 0.0 **** 0.06
30619 H 37.083879488408755 161.12088776810526 179.4906327738048 H 0.0 **** 0.06
30620 H 35.87117476031197 160.97930109880122 180.78515072079074 H 0.0 **** 0.06
30621 C 19.15622506287687 105.49835348867536 64.16891965138105 C 0.0 **** -0.24
30622 H 19.26130729715146 106.50125309294886 64.58032385847217 H 0.0 **** 0.06
30623 H 18.764990343210997 105.56030103404034 63.15322960539774 H 0.0 **** 0.06
30624 H 18.468723234598002 104.92202457416984 64.78890723894649 H 0.0 **** 0.06
30625 H 20.129204365942343 105.00719859167067 64.15447988420216 H 0.0 **** 0.06
30626 C 53.020211893072 89.4664265204175 56.639549163060536 C 0.0 **** -0.24
30627 H 52.511137783192 90.27653564947032 56.11735177372992 H 0.0 **** 0.06
30628 H 52.29564598668898 88.89900014017404 57.224663633755355 H 0.0 **** 0.06
30629 H 53.77825611988695 89.88249218736432 57.30360013182229 H 0.0 **** 0.06
30630 H 53.49521142718737 88.80829207593409 55.912063866794554 H 0.0 **** 0.06
30631 C 173.59613519469636 20.732458175037436 151.62298130194645 C 0.0 **** -0.24
30632 H 174.58567313461572 20.276753227011056 151.6760667781858 H 0.0 **** 0.06
30633 H 173.22046658168037 20.901053094499957 152.63261946969413 H 0.0 **** 0.06
30634 H 172.91790167392054 20.06759730628255 151.08917454642398 H 0.0 **** 0.06
30635 H 173.66279293536837 21.68432193593884 151.09571618906773 H 0.0 **** 0.06
30636 C 172.14803509429754 38.36127276997257 92.25239626800483 C 0.0 **** -0.24
30637 H 171.51562795100793 38.926319753178916 91.56764998293427 H 0.0 **** 0.06
30638 H 171.6033869482803 38.17557659840577 93.1786255673402 H 0.0 **** 0.06
30639 H 173.04948702191575 38.93492387979222 92.46955107002073 H 0.0 **** 0.06
30640 H 172.42315606036902 37.41197365605365 91.79399689836377 H 0.0 **** 0.06
30641 C 142.2001290524516 64.81247197952017 31.662081208860783 C 0.0 **** -0.24
30642 H 141.31795618353607 64.7041797236761 32.294333705394806 H 0.0 **** 0.06
30643 H 141.8909738750939 65.08007959880395 30.651984388541237 H 0.0 **** 0.06
30644 H 142.7471346078263 63.87088129471434 31.637766073322055 H 0.0 **** 0.06
30645 H 142.84150282584346 65.59542066033694 32.06592943954239 H 0.0 **** 0.06
30646 C 83.23047068324752 161.77084821969393 177.4602727375503 C 0.0 **** -0.24
30647 H 83.9091737574704 161.02485768914428 177.8735578990254 H 0.0 **** 0.06
30648 H 82.58570493064417 162.15408833556947 178.2515694688715 H 0.0 **** 0.06
30649 H 82.61939772157444 161.3140996151569 176.68234543458266 H 0.0 **** 0.06
30650 H 83.80895704752072 162.59066054297634 177.0333398779396 H 0.0 **** 0.06
30651 C 14.723923148362637 5.493045508284126 129.354374244763 C 0.0 **** -0.24
30652 H 13.884066882693688 5.051043219642281 128.81859650616877 H 0.0 **** 0.06
30653 H 14.85012677718526 6.529849134916731 129.04226969185243 H 0.0 **** 0.06
30654 H 15.631627636672825 4.932984872988754 129.13158513288278 H 0.0 **** 0.06
30655 H 14.528549799636387 5.456657355081404 130.42692707035803 H 0.0 **** 0.06
30656 C 80.47035088445708 172.3243841574895 70.91042910151913 C 0.0 **** -0.24
30657 H 80.85520542293047 172.07687703052792 71.89973672281255 H 0.0 **** 0.06
30658 H 81.19321586307674 172.0201220057518 70.1530380895906 H 0.0 **** 0.06
30659 H 80.30542567471502 173.40007462291067 70.8442469622708 H 0.0 **** 0.06
30660 H 79.52889546121857 171.80116199985463 70.74554246500259 H 0.0 **** 0.06
30661 C 62.05110475882006 130.2613400040679 87.60502943633871 C 0.0 **** -0.24
30662 H 63.075954046871715 129.89527787209067 87.54507269487966 H 0.0 **** 0.06
30663 H 61.36524537832793 129.4694638633627 87.30044528689452 H 0.0 **** 0.06
30664 H 61.93209804115986 131.11968685865526 86.94517990983017 H 0.0 **** 0.06
30665 H 61.83038610837929 130.55794118970732 88.63065187628222 H 0.0 **** 0.06
30666 C 159.5740267039296 61.133310927008694 100.97760045732203 C 0.0 **** -0.24
30667 H 159.77154975023436 61.116935776648944 102.04938955117824 H 0.0 **** 0.06
30668 H 159.56310380581613 62.165251357879555 100.6259201829027 H 0.0 **** 0.06
30669 H 158.60758197955494 60.67070182991803 100.77898584147643 H 0.0 **** 0.06
30670 H 160.35603810594944 60.58085651879024 100.45633692886149 H 0.0 **** 0.06
30671 C 36.14568490511442 174.93650475404138 94.58020824481069 C 0.0 **** -0.24
30672 H 36.97474623979889 175.44551486479753 95.07133079791485 H 0.0 **** 0.06
30673 H 35.21733457828907 175.16600578639736 95.10448521495563 H 0.0 **** 0.06
30674 H 36.31753924504025 173.85975878132268 94.59958835572614 H 0.0 **** 0.06
30675 H 36.073350837426744 175.27450032283863 93.54680313354955 H 0.0 **** 0.06
30676 C 49.80268389253635 129.33565442892677 2.6074461619848535 C 0.0 **** -0.24
30677 H 48.99884756787148 129.6868549123417 1.959559771306516 H 0.0 **** 0.06
30678 H 49.767260355521316 129.875519990922 3.5538227873618666 H 0.0 **** 0.06
30679 H 50.76209483549198 129.51398045707913 2.1234949316801135 H 0.0 **** 0.06
30680 H 49.680476736853336 128.26843302605613 2.792660238142929 H 0.0 **** 0.06
30681 C 140.55736723370035 112.25953621012339 139.2382268830538 C 0.0 **** -0.24
30682 H 140.72607443564283 112.55246827922902 138.2017708751764 H 0.0 **** 0.06
30683 H 141.22550635663066 112.82517018319508 139.88863653537413 H 0.0 **** 0.06
30684 H 140.7562450185339 111.19318426716454 139.35092362100187 H 0.0 **** 0.06
30685 H 139.52235621069212 112.4673429312384 139.51035538506437 H 0.0 **** 0.06
30686 C 161.37087025182598 86.4084298014929 25.258875561286985 C 0.0 **** -0.24
30687 H 160.97062460046297 87.00298879966715 26.0800578661854 H 0.0 **** 0.06
30688 H 161.0111286518867 85.38209304515027 25.344070954095457 H 0.0 **** 0.06
30689 H 162.4600793630833 86.41626071664751 25.30243652673019 H 0.0 **** 0.06
30690 H 161.04194477509765 86.83163649881521 24.310474563732214 H 0.0 **** 0.06
30691 C 180.23257876690872 120.11843136696052 49.368850680126315 C 0.0 **** -0.24
30692 H 179.2015240658199 120.25936450001336 49.04344718226605 H 0.0 **** 0.06
30693 H 180.69809584958065 121.09109178891924 49.52900036146855 H 0.0 **** 0.06
30694 H 180.7832711899895 119.57384167180686 48.60209499953254 H 0.0 **** 0.06
30695 H 180.24514297169134 119.55058227331193 50.298747390225856 H 0.0 **** 0.06
30696 C 171.0849740259937 146.4483439909092 12.997854397450226 C 0.0 **** -0.24
30697 H 171.31921863190007 145.84469339538057 12.12037743807727 H 0.0 **** 0.06
30698 H 170.05533925175905 146.799552495958 12.933207894680862 H 0.0 **** 0.06
30699 H 171.75920002417274 147.30290439890717 13.04103010226737 H 0.0 **** 0.06
30700 H 171.20774288697987 145.84333094512175 13.89658817479787 H 0.0 **** 0.06
30701 C 124.0148726294458 84.73465565180993 182.96602870973118 C 0.0 **** -0.24
30702 H 124.24579014372397 85.34622323421502 183.8388835570221 H 0.0 **** 0.06
30703 H 124.92793773002002 84.26644817433169 182.60018556043337 H 0.0 **** 0.06
30704 H 123.58981435958681 85.36496997144701 182.18477606528677 H 0.0 **** 0.06
30705 H 123.29554538063589 83.96407494307914 183.2433138408753 H 0.0 **** 0.06
30706 C 182.2539526712677 84.88386775747152 5.042930237135721 C 0.0 **** -0.24
30707 H 181.84660679648226 84.36636214514581 4.174810069895685 H 0.0 **** 0.06
30708 H 182.6670185638365 85.84379464473254 4.731369121597957 H 0.0 **** 0.06
30709 H 183.04183897817546 84.27742147390921 5.490581280146706 H 0.0 **** 0.06
30710 H 181.46203319899035 85.04803191983369 5.773189795264791 H 0.0 **** 0.06
30711 C 19.612629513814227 47.84874103617274 45.65790144829009 C 0.0 **** -0.24
30712 H 18.913689731132195 48.684949029715355 45.68179162638204 H 0.0 **** 0.06
30713 H 19.615091835826092 47.35099658897833 46.628976023546926 H 0.0 **** 0.06
30714 H 20.613774949666208 48.2176151480393 45.43643350039467 H 0.0 **** 0.06
30715 H 19.306772481011933 47.141403601259356 44.88795238689963 H 0.0 **** 0.06
30716 C 134.37992358484058 129.12203068375322 83.0977550628105 C 0.0 **** -0.24
30717 H 134.7276710981502 129.47527533666602 82.12761630202488 H 0.0 **** 0.06
30718 H 133.37530791217853 128.7110039730468 82.99529155131063 H 0.0 **** 0.06
30719 H 134.3636228378673 129.9532045135948 83.80262222035282 H 0.0 **** 0.06
30720 H 135.05442421798688 128.34761029535724 83.46507965809155 H 0.0 **** 0.06
30721 C 19.66105803210428 56.8370356118204 36.4450764189791 C 0.0 **** -0.24
30722 H 20.348429669323423 56.38401941507078 35.72960247939048 H 0.0 **** 0.06
30723 H 19.013081300645837 56.06668988218047 36.86279398855375 H 0.0 **** 0.06
30724 H 19.05410364796529 57.58780870580517 35.938606763821184 H 0.0 **** 0.06
30725 H 20.23006920931749 57.308850034224406 37.24642266438349 H 0.0 **** 0.06
30726 C 118.18148241975003 18.86542075699368 116.08711562780444 C 0.0 **** -0.24
30727 H 119.24247806155701 18.672781385017743 116.24300552313194 H 0.0 **** 0.06
30728 H 117.65815084358225 18.815703742903672 117.04312540678087 H 0.0 **** 0.06
30729 H 117.7716494266955 18.11691425524249 115.40937062815594 H 0.0 **** 0.06
30730 H 118.05205842442122 19.85678785514022 115.65341750897251 H 0.0 **** 0.06
30731 C 128.68866511402797 41.096039940507666 137.56288328234962 C 0.0 **** -0.24
30732 H 129.03700282481554 41.40426963724093 138.54966527726305 H 0.0 **** 0.06
30733 H 127.68796840688465 41.49273954596924 137.39096791965005 H 0.0 **** 0.06
30734 H 128.66352569294037 40.00722754103009 137.5107780984382 H 0.0 **** 0.06
30735 H 129.3680684343625 41.48092075700947 136.8024404863467 H 0.0 **** 0.06
30736 C 84.17612265409906 145.26542288534722 157.3164079902967 C 0.0 **** -0.24
30737 H 83.59362238501924 144.69615481809697 158.04012453946189 H 0.0 **** 0.06
30738 H 83.76921204783486 146.2739062805293 157.23345982690947 H 0.0 **** 0.06
30739 H 84.12970197533335 144.7732572008648 156.3452708178643 H 0.0 **** 0.06
30740 H 85.21391207100856 145.31810901137183 157.64782419237108 H 0.0 **** 0.06
30741 C 34.39731666208881 125.04525428079664 47.44798898696493 C 0.0 **** -0.24
30742 H 35.42246844941121 125.35823784422102 47.24746345244344 H 0.0 **** 0.06
30743 H 33.70583931238603 125.75326441241843 46.9900227026713 H 0.0 **** 0.06
30744 H 34.230161585996896 125.01883598620078 48.52494888726035 H 0.0 **** 0.06
30745 H 34.23240748406674 124.05218915375231 47.02987658355853 H 0.0 **** 0.06
30746 C 169.97859732634402 154.72537345629027 37.90155046260084 C 0.0 **** -0.24
30747 H 170.47322773205403 154.4295302040619 36.97537772414799 H 0.0 **** 0.06
30748 H 169.0554944649718 154.15726613979348 38.01650065575329 H 0.0 **** 0.06
30749 H 169.74842555509784 155.79016468915523 37.86566247009961 H 0.0 **** 0.06
30750 H 170.63814132400032 154.52346171510302 38.745190618208724 H 0.0 **** 0.06
30751 C 59.123911252150606 21.457189723165584 110.66000278177275 C 0.0 **** -0.24
30752 H 60.043209242498506 21.664099359529587 111.20769700785836 H 0.0 **** 0.06
30753 H 59.28201377141541 20.610143248238785 109.99145266466208 H 0.0 **** 0.06
30754 H 58.84391961639038 22.333710397287717 110.07582168721508 H 0.0 **** 0.06
30755 H 58.326496848969 21.220863215269247 111.3640414148722 H 0.0 **** 0.06
30756 C 103.40007637935514 58.72939833490348 156.80349015634388 C 0.0 **** -0.24
30757 H 103.42076653679061 59.347251334642266 155.9051717400061 H 0.0 **** 0.06
30758 H 102.58207202065432 58.01364608655719 156.73361235444494 H 0.0 **** 0.06
30759 H 103.25347673365275 59.36540740378142 157.67672917423295 H 0.0 **** 0.06
30760 H 104.34479629287267 58.19484172945103 156.8975957304923 H 0.0 **** 0.06
30761 C 49.78169795043658 63.43872270311999 92.39952292163268 C 0.0 **** -0.24
30762 H 50.17319707598804 62.54955417955965 92.89160531676087 H 0.0 **** 0.06
30763 H 49.30251705053141 63.15388977427743 91.46201864457619 H 0.0 **** 0.06
30764 H 50.59965360907239 64.12945362315298 92.19364987636057 H 0.0 **** 0.06
30765 H 49.051987668989966 63.92286565483647 93.04800334021489 H 0.0 **** 0.06
30766 C 32.381635915162576 42.2018419180327 23.534461160021635 C 0.0 **** -0.24
30767 H 32.307413607612986 42.08037803208583 24.614968877821696 H 0.0 **** 0.06
30768 H 31.430774925394687 42.564331128137894 23.143673087554106 H 0.0 **** 0.06
30769 H 32.62108198723695 41.241433301561756 23.07699613050829 H 0.0 **** 0.06
30770 H 33.168382103194304 42.92067651927917 23.30341865549758 H 0.0 **** 0.06
30771 C 63.89181589319038 5.461220138958481 101.79459219252476 C 0.0 **** -0.24
30772 H 63.37830275757898 4.647471337937134 101.28132078091954 H 0.0 **** 0.06
30773 H 63.2413694053231 6.334732013658197 101.8299717904261 H 0.0 **** 0.06
30774 H 64.80639389418866 5.710483650800143 101.25616378078013 H 0.0 **** 0.06
30775 H 64.14030394586932 5.15089639685516 102.80932526915086 H 0.0 **** 0.06
30776 C 45.397271028281864 96.62485701288654 34.42554742823444 C 0.0 **** -0.24
30777 H 45.95924481149487 97.54044758984787 34.606358638431914 H 0.0 **** 0.06
30778 H 45.67474644041005 96.21519928260278 33.4527265920666 H 0.0 **** 0.06
30779 H 44.32987152566125 96.84507473642236 34.435588106614546 H 0.0 **** 0.06
30780 H 45.6250984343194 95.89795238408482 35.20461525304802 H 0.0 **** 0.06
30781 C 29.072862033444437 26.20535839088791 132.51048072661183 C 0.0 **** -0.24
30782 H 28.096722971570443 25.724127114875444 132.57894516417878 H 0.0 **** 0.06
30783 H 29.28366328642312 26.732308049913726 133.4409377357842 H 0.0 **** 0.06
30784 H 29.070357304846766 26.914280480820864 131.68333229580895 H 0.0 **** 0.06
30785 H 29.83893592710058 25.449403223048392 132.3390866564377 H 0.0 **** 0.06
30786 C 141.04445975664123 45.091583046629694 78.9667045531036 C 0.0 **** -0.24
30787 H 140.91281280885215 44.53257941703271 79.89261565162661 H 0.0 **** 0.06
30788 H 140.64786289906618 46.09918228547724 79.09177282152649 H 0.0 **** 0.06
30789 H 140.5120737173075 44.58930174106564 78.15980001931425 H 0.0 **** 0.06
30790 H 142.10599356275623 45.14600897857872 78.72342656020123 H 0.0 **** 0.06
30791 C 149.7627157236782 59.66425245110139 106.5037394191768 C 0.0 **** -0.24
30792 H 150.71216102120422 59.99058860087712 106.07913877071401 H 0.0 **** 0.06
30793 H 149.9508694074373 59.09340977656754 107.41383404660057 H 0.0 **** 0.06
30794 H 149.23891984687134 59.0377818974147 105.78334311776321 H 0.0 **** 0.06
30795 H 149.15205549577144 60.53511231645177 106.74066879218545 H 0.0 **** 0.06
30796 C 53.21311174946436 160.5726618041496 123.0501931406228 C 0.0 **** -0.24
30797 H 54.227134103474796 160.21510636352886 122.86960756420414 H 0.0 **** 0.06
30798 H 52.52888228534994 160.0881946852532 122.35359066062237 H 0.0 **** 0.06
30799 H 53.17719384331039 161.65219995264013 122.9048464991664 H 0.0 **** 0.06
30800 H 52.92128755083776 160.3332266509401 124.07305912579675 H 0.0 **** 0.06
30801 C 62.85404842709869 58.23246100523811 170.92450118122164 C 0.0 **** -0.24
30802 H 61.93435052084122 57.689759069320885 170.7057119297295 H 0.0 **** 0.06
30803 H 63.458436949329595 58.30272133998811 170.01986126668606 H 0.0 **** 0.06
30804 H 63.413506659362255 57.70289666581637 171.69624756623594 H 0.0 **** 0.06
30805 H 62.6086646026822 59.234068496942925 171.27674620929167 H 0.0 **** 0.06
30806 C 183.58186637154668 74.70393218412022 133.5769084841022 C 0.0 **** -0.24
30807 H 184.38105372732844 75.39295976724418 133.84780863589384 H 0.0 **** 0.06
30808 H 183.58813098632223 73.85476564755794 134.2613260078419 H 0.0 **** 0.06
30809 H 183.73815237405998 74.3495293071934 132.5582482662595 H 0.0 **** 0.06
30810 H 182.62234620618955 75.21596688984198 133.64159116680332 H 0.0 **** 0.06
30811 C 148.3263457656927 103.11824809539098 175.6016869908027 C 0.0 **** -0.24
30812 H 147.4458019431678 102.54213263724841 175.8869621776431 H 0.0 **** 0.06
30813 H 148.01970130605116 104.11848572748863 175.29444240129277 H 0.0 **** 0.06
30814 H 148.83168227588124 102.62247150128911 174.77386037685477 H 0.0 **** 0.06
30815 H 149.00386869935625 103.19038722230789 176.45164637137043 H 0.0 **** 0.06
30816 C 117.86494057619784 28.453857935182782 109.77055582111926 C 0.0 **** -0.24
30817 H 118.33074072474905 29.432089952654962 109.6440340852789 H 0.0 **** 0.06
30818 H 117.35959757595181 28.414657094598965 110.73539731205598 H 0.0 **** 0.06
30819 H 118.63177566532893 27.679699766934334 109.72953798354241 H 0.0 **** 0.06
30820 H 117.14101778733131 28.290197829200338 108.97283437436975 H 0.0 **** 0.06
30821 C 6.6130038566429405 16.469751467868434 67.00651143949207 C 0.0 **** -0.24
30822 H 6.031800376094083 16.93365980203575 66.20939166023618 H 0.0 **** 0.06
30823 H 7.67474736113131 16.65010260659045 66.83448355449019 H 0.0 **** 0.06
30824 H 6.424015075488953 15.396331548072169 67.01652534249364 H 0.0 **** 0.06
30825 H 6.321979704581658 16.898536241720052 67.96488292137762 H 0.0 **** 0.06
30826 C 124.43707179898689 73.73974155494483 40.24713718603422 C 0.0 **** -0.24
30827 H 123.76834876667857 73.54844470815311 41.08627566187994 H 0.0 **** 0.06
30828 H 125.37024251404404 73.1948624672903 40.39549688201885 H 0.0 **** 0.06
30829 H 124.64580476927114 74.80797983255411 40.18516216287253 H 0.0 **** 0.06
30830 H 123.96401309943582 73.40703437887521 39.32286678127434 H 0.0 **** 0.06
30831 C 56.726537090295395 119.09354811123556 184.8817158407267 C 0.0 **** -0.24
30832 H 57.230160605776604 120.04399748200261 185.06098306256538 H 0.0 **** 0.06
30833 H 56.086983997252034 119.18056172137135 184.00350810346725 H 0.0 **** 0.06
30834 H 56.11936083727343 118.83590700671614 185.74961181766238 H 0.0 **** 0.06
30835 H 57.47018551563508 118.31414409664065 184.71511221482388 H 0.0 **** 0.06
30836 C 124.83427589930965 62.06876135475831 123.88347957001889 C 0.0 **** -0.24
30837 H 125.43652355005689 61.49272079449749 123.18019838250137 H 0.0 **** 0.06
30838 H 125.4786041887332 62.474307631502555 124.66460931456606 H 0.0 **** 0.06
30839 H 124.08149535917788 61.42110857348514 124.33202240775552 H 0.0 **** 0.06
30840 H 124.34390572520122 62.886044301397575 123.35585469515257 H 0.0 **** 0.06
30841 C 183.02848405151417 59.082905792280314 159.51181867681558 C 0.0 **** -0.24
30842 H 182.6340155156382 59.96795266250376 159.01219283106497 H 0.0 **** 0.06
30843 H 182.88376786077623 59.17922791144372 160.58805872758774 H 0.0 **** 0.06
30844 H 184.09250888835885 58.98859511513412 159.29542089430663 H 0.0 **** 0.06
30845 H 182.5043164434831 58.19820246201752 159.1515581072082 H 0.0 **** 0.06
30846 C 55.96122405760502 141.82405325723346 3.807117356172938 C 0.0 **** -0.24
30847 H 56.11451151226498 142.89823326251232 3.9129740856531328 H 0.0 **** 0.06
30848 H 55.255653479074596 141.6365363735165 2.996816808988399 H 0.0 **** 0.06
30849 H 55.5618548820498 141.4214907263222 4.737290996283292 H 0.0 **** 0.06
30850 H 56.91191248293694 141.34211335070938 3.5807530740544564 H 0.0 **** 0.06
30851 C 47.60700490173821 118.06258016581785 91.93842158354427 C 0.0 **** -0.24
30852 H 48.00161072859592 119.07783188717264 91.89824017010271 H 0.0 **** 0.06
30853 H 47.94733223183482 117.50579982317794 91.0655983996043 H 0.0 **** 0.06
30854 H 46.51787345770819 118.09622226275957 91.9459217631614 H 0.0 **** 0.06
30855 H 47.96125452064149 117.57090767199577 92.84526874085704 H 0.0 **** 0.06
30856 C 89.63928729078715 5.635368496006286 16.02079811727819 C 0.0 **** -0.24
30857 H 89.63173520204033 5.4323300822876845 17.091906301782075 H 0.0 **** 0.06
30858 H 90.12210937769375 4.8105599403983135 15.497446397143534 H 0.0 **** 0.06
30859 H 90.18765817371151 6.558347906299083 15.830249524694125 H 0.0 **** 0.06
30860 H 88.6144326813142 5.742674645393549 15.66435204481482 H 0.0 **** 0.06
30861 C 64.93525841583912 118.66855386199899 173.48287957944 C 0.0 **** -0.24
30862 H 63.97900894973306 118.98716063314777 173.0668843045194 H 0.0 **** 0.06
30863 H 65.67793883294202 119.45192755102636 173.32797685893058 H 0.0 **** 0.06
30864 H 65.26038107771474 117.75482799073365 172.98647286778234 H 0.0 **** 0.06
30865 H 64.82165941255468 118.48123851794685 174.55115090198825 H 0.0 **** 0.06
30866 C 17.736140706962146 135.3776652489422 41.21884688941239 C 0.0 **** -0.24
30867 H 17.20306581167327 136.2502102041703 40.84006219849559 H 0.0 **** 0.06
30868 H 18.58958447518799 135.16557972476068 40.57425954362145 H 0.0 **** 0.06
30869 H 17.064694929587574 134.51868962206578 41.22837685231174 H 0.0 **** 0.06
30870 H 18.08530717782085 135.57694795529738 42.231815562550764 H 0.0 **** 0.06
30871 C 73.3088398073836 15.619010629708669 106.11676743101252 C 0.0 **** -0.24
30872 H 73.16511235456909 16.079524808114137 107.09446855460506 H 0.0 **** 0.06
30873 H 73.89785505167998 14.70815117541138 106.22783263897547 H 0.0 **** 0.06
30874 H 73.83431509285998 16.313345173855183 105.46157080885801 H 0.0 **** 0.06
30875 H 72.33915216930171 15.374175372589313 105.68465643094648 H 0.0 **** 0.06
30876 C 53.78037964983031 122.29862025280947 98.43062177211715 C 0.0 **** -0.24
30877 H 53.0834277648608 123.063491622809 98.77349233990896 H 0.0 **** 0.06
30878 H 54.78221192228915 122.53548932790979 98.7873912727386 H 0.0 **** 0.06
30879 H 53.778620703035614 122.26940090442982 97.34097848143915 H 0.0 **** 0.06
30880 H 53.474455090992876 121.32782437132387 98.82103295631316 H 0.0 **** 0.06
30881 C 97.87324023467386 116.21649160420252 63.138095379997566 C 0.0 **** -0.24
30882 H 97.09193220438351 116.52823486586 63.83098516521083 H 0.0 **** 0.06
30883 H 97.64039622137017 116.58633801281364 62.1388718334118 H 0.0 **** 0.06
30884 H 97.92864443772561 115.12842821436378 63.119127574205336 H 0.0 **** 0.06
30885 H 98.83074232576263 116.62330986074882 63.462822968067144 H 0.0 **** 0.06
30886 C 136.57268437080273 177.39398926104818 94.82243225301143 C 0.0 **** -0.24
30887 H 136.43897863868966 178.4691254250327 94.93460768131062 H 0.0 **** 0.06
30888 H 136.43102199199626 177.11632583737364 93.77813145937215 H 0.0 **** 0.06
30889 H 135.84229288577018 176.8703762459353 95.43948335255111 H 0.0 **** 0.06
30890 H 137.57931061257256 177.11807039327124 95.13851101129687 H 0.0 **** 0.06
30891 C 19.321886235124424 0.2109871048501617 120.92634952180977 C 0.0 **** -0.24
30892 H 19.994808550648862 -0.6436103059255345 120.99498756017668 H 0.0 **** 0.06
30893 H 19.905627183354902 1.1303123901770888 120.8797996799238 H 0.0 **** 0.06
30894 H 18.674274839143827 0.23462840121870698 121.80286303306899 H 0.0 **** 0.06
30895 H 18.712156272273987 0.12164445512603805 120.02648583141111 H 0.0 **** 0.06
30896 C 4.982057283616427 29.08315495946772 81.24568376910327 C 0.0 **** -0.24
30897 H 5.854217066667786 29.253559392231978 81.87702599806698 H 0.0 **** 0.06
30898 H 4.093172408348835 28.993727457638613 81.87124735245038 H 0.0 **** 0.06
30899 H 5.119940649348592 28.163820761099743 80.67645606862595 H 0.0 **** 0.06
30900 H 4.86125340486123 29.921025423382446 80.55928529632763 H 0.0 **** 0.06
30901 C 0.9920144728928335 83.27824974193624 68.63751799331624 C 0.0 **** -0.24
30902 H 1.8123648683696274 82.56431706896491 68.69669301113422 H 0.0 **** 0.06
30903 H 1.3860859146434734 84.29197158325702 68.7109897286499 H 0.0 **** 0.06
30904 H 0.29519873090714555 83.09897479280677 69.45737512778555 H 0.0 **** 0.06
30905 H 0.4729521643001249 83.15773268827161 67.6869837713859 H 0.0 **** 0.06
30906 C 160.00336318836662 74.67107263798573 62.235013003854306 C 0.0 **** -0.24
30907 H 159.53824376441722 74.5368131812852 63.212009269089705 H 0.0 **** 0.06
30908 H 159.49287792760634 75.46994751078802 61.697274130564296 H 0.0 **** 0.06
30909 H 159.92773538545896 73.74306736193233 61.666920542774776 H 0.0 **** 0.06
30910 H 161.05329792290783 74.93182082968451 62.3653770261145 H 0.0 **** 0.06
30911 C 135.12289715850227 57.189320049113405 2.7302430790279573 C 0.0 **** -0.24
30912 H 135.02406039939018 56.41399429227252 3.490846564119039 H 0.0 **** 0.06
30913 H 135.8430803467557 56.869337217734284 1.9775708309599054 H 0.0 **** 0.06
30914 H 135.46771422824872 58.112470861673444 3.1953098606713297 H 0.0 **** 0.06
30915 H 134.1543566454095 57.35973351013877 2.257799490121613 H 0.0 **** 0.06
30916 C 51.07228490358585 121.95973967704491 7.074286977700659 C 0.0 **** -0.24
30917 H 52.08092401195438 122.34426117766115 7.2285748592838175 H 0.0 **** 0.06
30918 H 50.42533863398097 122.76777257121027 6.732986925742225 H 0.0 **** 0.06
30919 H 50.68988971913669 121.55829494926515 8.012190165977024 H 0.0 **** 0.06
30920 H 51.0961047757346 121.169741046836 6.323612518935448 H 0.0 **** 0.06
30921 C 153.17434122650286 56.04088218952717 101.6480840018113 C 0.0 **** -0.24
30922 H 153.3004820716822 54.959140496001694 101.69593549521153 H 0.0 **** 0.06
30923 H 152.99641435635107 56.43023356157754 102.65099273410556 H 0.0 **** 0.06
30924 H 152.3238121115337 56.2795803081445 101.00995095664433 H 0.0 **** 0.06
30925 H 154.0761859512831 56.493718445609176 101.2368872543783 H 0.0 **** 0.06
30926 C 20.183584404278577 66.54940655847034 77.09051376713377 C 0.0 **** -0.24
30927 H 20.749552379399063 67.47977598121764 77.04169413756144 H 0.0 **** 0.06
30928 H 19.160342322979943 66.72927465298918 76.75868623803227 H 0.0 **** 0.06
30929 H 20.173975276623935 66.18397891775433 78.11744933977764 H 0.0 **** 0.06
30930 H 20.650458719238515 65.80596453571735 76.44458444350562 H 0.0 **** 0.06
30931 C 118.4194282934151 127.54542151279985 79.88521332287922 C 0.0 **** -0.24
30932 H 118.36732438270882 126.7750134043733 79.11630378564729 H 0.0 **** 0.06
30933 H 118.4866044583434 128.5261354299625 79.41262155701645 H 0.0 **** 0.06
30934 H 119.3003086586124 127.38011911784874 80.50544332872676 H 0.0 **** 0.06
30935 H 117.52474023515445 127.50156480035353 80.50544247811308 H 0.0 **** 0.06
30936 C 125.28429859659245 161.00491305250006 66.55369093325574 C 0.0 **** -0.24
30937 H 124.7722779161383 160.91855083521517 65.59556268408913 H 0.0 **** 0.06
30938 H 126.2885498480846 161.39875122464016 66.39467426317127 H 0.0 **** 0.06
30939 H 125.34951681937072 160.02135708208905 67.02001552432237 H 0.0 **** 0.06
30940 H 124.72719395496374 161.6789833840629 67.20315373508345 H 0.0 **** 0.06
30941 C 70.2526750947021 138.97576642800027 96.54703094519307 C 0.0 **** -0.24
30942 H 70.28950348713308 139.61023312637758 95.66183999082405 H 0.0 **** 0.06
30943 H 69.26749047630975 139.05089332960046 97.00797844163064 H 0.0 **** 0.06
30944 H 71.01267655894203 139.30066060307803 97.25843444604926 H 0.0 **** 0.06
30945 H 70.44224116046408 137.9409687164021 96.26053175875096 H 0.0 **** 0.06
30946 C 159.66792382581605 114.24079961527167 144.90173960253435 C 0.0 **** -0.24
30947 H 159.86057289880296 114.17579491835465 143.83024479603506 H 0.0 **** 0.06
30948 H 159.49687202266557 115.28167686884058 145.17749166910858 H 0.0 **** 0.06
30949 H 160.5277348941517 113.855693802448 145.44972573118486 H 0.0 **** 0.06
30950 H 158.78500246138236 113.6502409395207 145.14786294016932 H 0.0 **** 0.06
30951 C 20.03892023379808 151.73667147958707 86.08293132128107 C 0.0 **** -0.24
30952 H 20.93995820035593 152.34844238680773 86.10288788166802 H 0.0 **** 0.06
30953 H 19.465940271619957 151.90302009266605 86.99479504440713 H 0.0 **** 0.06
30954 H 20.315703126548243 150.68426882796018 86.01496611627344 H 0.0 **** 0.06
30955 H 19.434452047314835 152.00988742285784 85.21822639228522 H 0.0 **** 0.06
30956 C 148.25956132663174 83.36173076357115 171.84308917093983 C 0.0 **** -0.24
30957 H 148.28817222668096 82.59421290827561 172.6166233494102 H 0.0 **** 0.06
30958 H 149.16594146632482 83.96559549789144 171.89772262627804 H 0.0 **** 0.06
30959 H 147.38803801207666 83.99812396290594 171.99653352912748 H 0.0 **** 0.06
30960 H 148.19596825728024 82.88757573678821 170.86347276359248 H 0.0 **** 0.06
30961 C 80.83301413519708 52.852385968894 151.63804454766927 C 0.0 **** -0.24
30962 H 81.1737533676951 53.46124686349765 152.47524257688607 H 0.0 **** 0.06
30963 H 80.89033202076122 53.43392971194359 150.71804895397847 H 0.0 **** 0.06
30964 H 79.80085351428319 52.54454826452712 151.80976758297834 H 0.0 **** 0.06
30965 H 81.46554375060829 51.96903513348343 151.5505005613112 H 0.0 **** 0.06
30966 C 147.33258615821802 53.06294804042216 65.96438688823412 C 0.0 **** -0.24
30967 H 147.4382207835929 52.811586129563295 64.90846553282833 H 0.0 **** 0.06
30968 H 146.99090662532592 54.09376254152073 66.05952852530692 H 0.0 **** 0.06
30969 H 148.29591981294823 52.952202792658 66.4616183318135 H 0.0 **** 0.06
30970 H 146.6058816626957 52.39423837238252 66.42602237878299 H 0.0 **** 0.06
30971 C 59.44308521718145 3.4119454286464475 27.408572924365444 C 0.0 **** -0.24
30972 H 59.21670248271644 2.7889376725315174 28.274733760557552 H 0.0 **** 0.06
30973 H 59.43643484625183 4.460984524754451 27.703930508075246 H 0.0 **** 0.06
30974 H 58.69056085986742 3.2456471602060333 26.636742386264103 H 0.0 **** 0.06
30975 H 60.42645005335926 3.1494661078869512 27.019691780120326 H 0.0 **** 0.06
30976 C 138.10678233308295 28.91389057323913 82.23114074235232 C 0.0 **** -0.24
30977 H 138.73084979945173 28.92470521819361 81.33790550575935 H 0.0 **** 0.06
30978 H 138.68277677704668 28.52994109258988 83.07289875460376 H 0.0 **** 0.06
30979 H 137.24113073030503 28.27397000294792 82.06037971845558 H 0.0 **** 0.06
30980 H 137.7715427960556 29.928012830745118 82.45133586685344 H 0.0 **** 0.06
30981 C 25.316825433153724 13.951057488730925 71.92798453296274 C 0.0 **** -0.24
30982 H 25.375074078445053 14.854317678224305 72.53481274098061 H 0.0 **** 0.06
30983 H 25.453307852208255 14.210031831946026 70.87809777788311 H 0.0 **** 0.06
30984 H 24.34185509423928 13.483683184546408 72.06345203032794 H 0.0 **** 0.06
30985 H 26.098808889207405 13.25598533819749 72.23653110286818 H 0.0 **** 0.06
30986 C 137.56094576847096 179.12470893496447 179.18966790026553 C 0.0 **** -0.24
30987 H 137.43507300102652 179.63194288908173 180.14623944847577 H 0.0 **** 0.06
30988 H 137.92023424221537 178.10981137897878 179.3623558473956 H 0.0 **** 0.06
30989 H 138.28380789002847 179.669172296782 178.58304583022425 H 0.0 **** 0.06
30990 H 136.60350232842404 179.08831665135253 178.66914600316255 H 0.0 **** 0.06
30991 C 100.37390309363462 112.53603579572916 65.23690849970323 C 0.0 **** -0.24
30992 H 99.51313434428215 113.09301474707985 65.60744187141 H 0.0 **** 0.06
30993 H 100.5824955600649 112.83116735644523 64.20828324121142 H 0.0 **** 0.06
30994 H 100.15809481218275 111.4681485117199 65.27283761216371 H 0.0 **** 0.06
30995 H 101.24173172559 112.7526362446622 65.8602102607379 H 0.0 **** 0.06
30996 C 78.52064774901464 24.17721191863363 144.74625973619123 C 0.0 **** -0.24
30997 H 77.71871246303823 24.91279248582397 144.69375868224765 H 0.0 **** 0.06
30998 H 79.24338187671805 24.48070462321408 145.50338978589474 H 0.0 **** 0.06
30999 H 79.01539849202061 24.10961489800475 143.77743431070715 H 0.0 **** 0.06
31000 H 78.10432771829153 23.204841478908406 145.0096771349895 H 0.0 **** 0.06
31001 C 43.461829607016625 165.87328779358208 32.04976875841436 C 0.0 **** -0.24
31002 H 43.39554703575669 164.8803594320867 31.605684038671427 H 0.0 **** 0.06
31003 H 43.29705525516735 165.8018891497232 33.126167419954754 H 0.0 **** 0.06
31004 H 42.70327667184182 166.51981349174048 31.60840458699687 H 0.0 **** 0.06
31005 H 44.450571377549124 166.291398065324 31.860856409969045 H 0.0 **** 0.06
31006 C 153.45017979150407 176.91771410741677 143.4226612863422 C 0.0 **** -0.24
31007 H 152.61519551923743 176.7454480879816 142.74394040640942 H 0.0 **** 0.06
31008 H 153.41305841181713 176.1920835993218 144.23593969051535 H 0.0 **** 0.06
31009 H 153.38397654982694 177.9254927870395 143.83163268639345 H 0.0 **** 0.06
31010 H 154.38835013669046 176.8068996199546 142.87879832642034 H 0.0 **** 0.06
31011 C 117.3214038330092 43.733575946898455 119.92666896460692 C 0.0 **** -0.24
31012 H 116.65802832333334 43.64080975822259 119.06751606852397 H 0.0 **** 0.06
31013 H 116.88045164263023 44.41785362979627 120.65310522341976 H 0.0 **** 0.06
31014 H 118.28623113146925 44.121401468691616 119.60138449294372 H 0.0 **** 0.06
31015 H 117.45869178419788 42.75477344230438 120.38662444893323 H 0.0 **** 0.06
31016 C 13.855286713871166 0.8078845281755775 131.6131269678936 C 0.0 **** -0.24
31017 H 13.86987951873639 1.5418098792460455 130.80743720769556 H 0.0 **** 0.06
31018 H 14.058635432395583 -0.1835740841386837 131.20536779398276 H 0.0 **** 0.06
31019 H 12.874932114676177 0.8108734614053787 132.08997841117525 H 0.0 **** 0.06
31020 H 14.618069069625427 1.0614631068999643 132.34875957009575 H 0.0 **** 0.06
31021 C 167.92406786546493 94.65106085936308 56.738660681718514 C 0.0 **** -0.24
31022 H 167.7525548504131 93.72984790696596 57.29620293574986 H 0.0 **** 0.06
31023 H 166.99212849376374 94.97195396670251 56.27187698908992 H 0.0 **** 0.06
31024 H 168.6745235313159 94.47356685709953 55.967828303724545 H 0.0 **** 0.06
31025 H 168.27594648042046 95.4262203460821 57.41789519424083 H 0.0 **** 0.06
31026 C 43.90090885371916 160.54834101710517 57.11183799542877 C 0.0 **** -0.24
31027 H 44.33939441334185 160.2508341312601 58.064878106813325 H 0.0 **** 0.06
31028 H 43.67070874996875 161.6133337334802 57.13545538423958 H 0.0 **** 0.06
31029 H 42.98578997278413 159.98125188417987 56.94084174837687 H 0.0 **** 0.06
31030 H 44.609076124905656 160.34591127822688 56.309020673316226 H 0.0 **** 0.06
31031 C 147.44470663844615 8.976045065016002 26.047899752055486 C 0.0 **** -0.24
31032 H 147.1466897405616 9.962655224894895 26.402954238795076 H 0.0 **** 0.06
31033 H 146.99995216692676 8.793560568597542 25.06902730815932 H 0.0 **** 0.06
31034 H 147.1002151981662 8.217827781812723 26.751225114542763 H 0.0 **** 0.06
31035 H 148.53092132240923 8.931195987237956 25.967509518952113 H 0.0 **** 0.06
31036 C 110.70614083640076 99.91849799070043 89.06087784690078 C 0.0 **** -0.24
31037 H 109.9611774231824 99.89365139072397 88.26572282009153 H 0.0 **** 0.06
31038 H 111.59100156280776 99.36308174399299 88.74748880762684 H 0.0 **** 0.06
31039 H 110.2920503888938 99.46394923211265 89.96069609637021 H 0.0 **** 0.06
31040 H 110.9807758759447 100.95293137099945 89.2687902199969 H 0.0 **** 0.06
31041 C 117.17940742551917 147.46668404471498 72.36120427430892 C 0.0 **** -0.24
31042 H 116.79967241984463 147.25107834637774 73.36068309329448 H 0.0 **** 0.06
31043 H 118.26100943080934 147.3367684245826 72.34869958534549 H 0.0 **** 0.06
31044 H 116.93255616065494 148.49307510485602 72.09304543339674 H 0.0 **** 0.06
31045 H 116.72205154961807 146.78296533176433 71.6447144037923 H 0.0 **** 0.06
31046 C 45.46988659183708 103.09104987292586 23.161113172220382 C 0.0 **** -0.24
31047 H 46.07613210814884 103.02142124179635 22.25774912630078 H 0.0 **** 0.06
31048 H 44.435012313872846 102.84484638602179 22.923150070733016 H 0.0 **** 0.06
31049 H 45.52139277627083 104.10564282999287 23.556069633342474 H 0.0 **** 0.06
31050 H 45.84803255792184 102.3907681666016 23.90585911661725 H 0.0 **** 0.06
31051 C 14.919851549217597 98.93378836210464 126.36642124750148 C 0.0 **** -0.24
31052 H 15.032448945744356 99.67495984882204 125.57601060505999 H 0.0 **** 0.06
31053 H 14.619135771687695 97.98062528561421 125.93040570002353 H 0.0 **** 0.06
31054 H 14.158174399809042 99.26716289545665 127.07173516344562 H 0.0 **** 0.06
31055 H 15.869760099963592 98.81206363622256 126.88846649306055 H 0.0 **** 0.06
31056 C 179.28389926076719 81.42189287816038 3.297246077342436 C 0.0 **** -0.24
31057 H 179.47789232409315 82.46253384043295 3.039204571432066 H 0.0 **** 0.06
31058 H 179.5482454582948 80.78332868248974 2.4541919711102764 H 0.0 **** 0.06
31059 H 178.2271493465557 81.29652752455104 3.532368387412191 H 0.0 **** 0.06
31060 H 179.8839910687261 81.14521557012576 4.165000588091658 H 0.0 **** 0.06
31061 C 42.84224951991875 185.35464007878454 168.7805094482611 C 0.0 **** -0.24
31062 H 43.16732615940555 185.4555394967472 167.74406268264462 H 0.0 **** 0.06
31063 H 42.693622521446 186.34411733019448 169.2120880975454 H 0.0 **** 0.06
31064 H 43.60199149816084 184.81965697298233 169.34941149657786 H 0.0 **** 0.06
31065 H 41.904539285247594 184.79906979853212 168.81306041387043 H 0.0 **** 0.06
31066 C 57.896511786908476 167.02383542206164 74.74194561518264 C 0.0 **** -0.24
31067 H 57.259925441740265 167.6875025190353 74.15804910344953 H 0.0 **** 0.06
31068 H 57.28790991994025 166.47470819992674 75.46117885455335 H 0.0 **** 0.06
31069 H 58.64491372287293 167.61200569158134 75.27312980366912 H 0.0 **** 0.06
31070 H 58.394740225966316 166.3187140187321 74.0750988246923 H 0.0 **** 0.06
31071 C 6.274176373885929 20.474401575809146 74.09273724115188 C 0.0 **** -0.24
31072 H 5.3241605703385915 21.00823559327081 74.07111376023356 H 0.0 **** 0.06
31073 H 6.177112331615845 19.53834983737041 73.54166455322459 H 0.0 **** 0.06
31074 H 6.546819039695748 20.261917289186243 75.12585375737403 H 0.0 **** 0.06
31075 H 7.046473211087317 21.089390463980216 73.63173658714561 H 0.0 **** 0.06
31076 C 31.698951038539178 138.00204530752552 99.52434698677946 C 0.0 **** -0.24
31077 H 32.13183963278044 137.00283189519445 99.51095546528377 H 0.0 **** 0.06
31078 H 32.487471639211094 138.738260372222 99.68298501767178 H 0.0 **** 0.06
31079 H 30.969258478535323 138.0708309837517 100.33184416313894 H 0.0 **** 0.06
31080 H 31.206035812391008 138.19750754423933 98.57164846444682 H 0.0 **** 0.06
31081 C 110.89637499880938 183.0497875502438 13.855516576204721 C 0.0 **** -0.24
31082 H 111.6437162562574 183.78266018597643 14.15845071152647 H 0.0 **** 0.06
31083 H 110.62600463269 182.431465557976 14.71138054779 H 0.0 **** 0.06
31084 H 111.30496771542137 182.41919893254686 13.065272705972106 H 0.0 **** 0.06
31085 H 110.01086708611562 183.56632918780429 13.485306049870793 H 0.0 **** 0.06
31086 C 134.33426032624226 104.05768998569785 136.66003150163198 C 0.0 **** -0.24
31087 H 134.57994430699233 104.70192304850487 137.50534715357247 H 0.0 **** 0.06
31088 H 133.2908856895694 103.7476426062341 136.73108356302748 H 0.0 **** 0.06
31089 H 134.97647758801753 103.17766022957387 136.67561856096404 H 0.0 **** 0.06
31090 H 134.48901165061505 104.60434485837489 135.73027249012085 H 0.0 **** 0.06
31091 C 103.40536468340825 176.63538211802606 16.960352272625073 C 0.0 **** -0.24
31092 H 104.37041127740797 177.14252976261395 16.931202102917496 H 0.0 **** 0.06
31093 H 102.85491459810989 176.8484069091872 16.04395415684303 H 0.0 **** 0.06
31094 H 102.83478844577404 176.98995962545328 17.818778689612486 H 0.0 **** 0.06
31095 H 103.56325797852467 175.56071081481716 17.04900130467729 H 0.0 **** 0.06
31096 C 20.534234239721677 158.5523535256211 174.07683906397835 C 0.0 **** -0.24
31097 H 21.464981300790726 158.22180559024613 174.53753671575058 H 0.0 **** 0.06
31098 H 20.213940461152355 157.81787092347903 173.33732801860458 H 0.0 **** 0.06
31099 H 20.692637236498804 159.51498054829133 173.58909721942257 H 0.0 **** 0.06
31100 H 19.76633461412608 158.6567444001584 174.84302641795503 H 0.0 **** 0.06
31101 C 11.435185466886338 124.41063546495268 126.56785023767206 C 0.0 **** -0.24
31102 H 11.838934272182918 125.381311375994 126.8538144206379 H 0.0 **** 0.06
31103 H 10.606448035971972 124.15316504605634 127.22804235984766 H 0.0 **** 0.06
31104 H 12.214270892964059 123.65322054827165 126.65158729781884 H 0.0 **** 0.06
31105 H 11.079730085999692 124.45446872950377 125.53784368086575 H 0.0 **** 0.06
31106 C 37.397782044143696 57.09566849816797 132.44606119419802 C 0.0 **** -0.24
31107 H 37.49977883538395 56.1012053665618 132.0109852108904 H 0.0 **** 0.06
31108 H 38.27417563218046 57.69256570475537 132.19431855269016 H 0.0 **** 0.06
31109 H 37.31571654005336 57.01048846546165 133.52991957703216 H 0.0 **** 0.06
31110 H 36.50340589026712 57.57524173363147 132.049391118092 H 0.0 **** 0.06
31111 C 6.609144364698466 43.32314068135723 169.9764634512576 C 0.0 **** -0.24
31112 H 6.586316731020929 43.41047886831774 168.89021656267738 H 0.0 **** 0.06
31113 H 5.927306214700266 42.5324792272519 170.29100849938564 H 0.0 **** 0.06
31114 H 6.3001563923993515 44.268580750048756 170.42233100262177 H 0.0 **** 0.06
31115 H 7.62084336697329 43.082081135522614 170.3002824560564 H 0.0 **** 0.06
31116 C 62.876736943887465 126.31164320263231 180.10778300906122 C 0.0 **** -0.24
31117 H 63.8047196542756 125.84457609962014 180.4389442918403 H 0.0 **** 0.06
31118 H 62.981439362483684 126.63066864230406 179.07028093122534 H 0.0 **** 0.06
31119 H 62.66308473667692 127.1772446619505 180.73483022513471 H 0.0 **** 0.06
31120 H 62.06048428504647 125.59457247104056 180.18725308668797 H 0.0 **** 0.06
31121 C 55.223565946831 87.40563890939688 26.539192952171817 C 0.0 **** -0.24
31122 H 54.87579039715496 87.39245151598669 25.506228468853408 H 0.0 **** 0.06
31123 H 54.38106563560552 87.22699790343694 27.208103264510285 H 0.0 **** 0.06
31124 H 55.66521001411269 88.37778911818344 26.7613502987832 H 0.0 **** 0.06
31125 H 55.972032219169535 86.62607052351848 26.679904447426793 H 0.0 **** 0.06
31126 C 85.50700694281694 138.47007354663003 13.027596399649013 C 0.0 **** -0.24
31127 H 86.0350595979671 137.7410577720542 13.641850211117628 H 0.0 **** 0.06
31128 H 84.43169229880372 138.3177030171961 13.126919272246909 H 0.0 **** 0.06
31129 H 85.79673513863197 138.34415551134992 11.984241430707414 H 0.0 **** 0.06
31130 H 85.76305105835125 139.4764963519222 13.35731277441272 H 0.0 **** 0.06
31131 C 130.3804679800112 59.150038882235194 91.06163514762056 C 0.0 **** -0.24
31132 H 129.72437690713394 59.75357731291608 91.68950476033876 H 0.0 **** 0.06
31133 H 129.93671110341256 58.16529585227478 90.91435864489199 H 0.0 **** 0.06
31134 H 131.3505087144407 59.04346645418168 91.54749691980646 H 0.0 **** 0.06
31135 H 130.50895748653346 59.6400422847226 90.09632354827909 H 0.0 **** 0.06
31136 C 114.39183952866671 37.52915021802974 22.806501679785754 C 0.0 **** -0.24
31137 H 114.27064270434943 38.59066952765335 23.023036793894804 H 0.0 **** 0.06
31138 H 114.62525959700218 36.99523811627495 23.728638516998885 H 0.0 **** 0.06
31139 H 115.20540286693847 37.3947323152498 22.0930271480527 H 0.0 **** 0.06
31140 H 113.4682141381029 37.13595080910298 22.382457211420203 H 0.0 **** 0.06
31141 C 138.51512393767462 9.545961353030009 0.8716958828153452 C 0.0 **** -0.24
31142 H 138.52971948959708 8.595247685514323 0.33756023821570125 H 0.0 **** 0.06
31143 H 138.68635923262065 10.360346867813917 0.1676155787616338 H 0.0 **** 0.06
31144 H 139.30100985153325 9.548712360126899 1.6278348627176058 H 0.0 **** 0.06
31145 H 137.54684204144877 9.678426874105014 1.352789824250216 H 0.0 **** 0.06
31146 C 108.60452534804524 38.40895375395722 148.47710059380634 C 0.0 **** -0.24
31147 H 109.02283927159185 38.7947818585059 149.4072132318876 H 0.0 **** 0.06
31148 H 109.41266952311624 38.06892792425566 147.82939171313535 H 0.0 **** 0.06
31149 H 108.044266655171 39.19824139401882 147.9763815421091 H 0.0 **** 0.06
31150 H 107.93889666313463 37.574343952079445 148.69727165426107 H 0.0 **** 0.06
31151 C 110.6067029497787 77.09479406771261 34.277119278915904 C 0.0 **** -0.24
31152 H 110.82084528917822 76.23427443047336 34.911041496740836 H 0.0 **** 0.06
31153 H 109.76641679779941 77.65145262530832 34.693163530780424 H 0.0 **** 0.06
31154 H 110.35443824994162 76.75182570612853 33.27353839242619 H 0.0 **** 0.06
31155 H 111.48386180022298 77.73897891115408 34.2319356502303 H 0.0 **** 0.06
31156 C 80.07556185717335 133.98774150757055 41.74371996591729 C 0.0 **** -0.24
31157 H 79.46278284236247 134.49444935090384 40.99877138955519 H 0.0 **** 0.06
31158 H 80.76152175927966 134.7040879018232 42.197699327884564 H 0.0 **** 0.06
31159 H 80.64550261986669 133.1909018592193 41.265501946224916 H 0.0 **** 0.06
31160 H 79.43276484976523 133.56287959475765 42.514344201240945 H 0.0 **** 0.06
31161 C 119.5003876851517 159.19348245988363 108.54338770166702 C 0.0 **** -0.24
31162 H 119.6391649158624 159.0095396490862 107.47850213953389 H 0.0 **** 0.06
31163 H 120.24905484864813 158.63799484489027 109.10866317747751 H 0.0 **** 0.06
31164 H 118.50371292688807 158.86843882233913 108.84133470257773 H 0.0 **** 0.06
31165 H 119.61032661662385 160.25917331282332 108.74491886018284 H 0.0 **** 0.06
31166 C 11.871917763306854 75.5239907564805 122.49515347516149 C 0.0 **** -0.24
31167 H 11.519378518686224 74.66784948174669 123.06963197065704 H 0.0 **** 0.06
31168 H 11.060569925293237 75.90141495546204 121.87184853277478 H 0.0 **** 0.06
31169 H 12.705126734906685 75.2172147581242 121.8620810582214 H 0.0 **** 0.06
31170 H 12.202359219664729 76.30814288655547 123.17667035326946 H 0.0 **** 0.06
31171 C 5.759304920352207 133.4553009096307 114.10043861754004 C 0.0 **** -0.24
31172 H 6.607863899883256 133.42794073363035 114.78386925536641 H 0.0 **** 0.06
31173 H 6.120907364079272 133.54660376093602 113.07624585038154 H 0.0 **** 0.06
31174 H 5.127276628023026 134.30975932492277 114.34083703449828 H 0.0 **** 0.06
31175 H 5.181875760190138 132.53612030450398 114.20301523084864 H 0.0 **** 0.06
31176 C 97.90333214041782 117.36552103395896 176.908208751306 C 0.0 **** -0.24
31177 H 98.92232209885803 117.378641848107 177.2953284728219 H 0.0 **** 0.06
31178 H 97.72237624037798 116.42116518084721 176.3950398287784 H 0.0 **** 0.06
31179 H 97.76819113544327 118.19182392213422 176.2110181141207 H 0.0 **** 0.06
31180 H 97.19998891969571 117.4694106149983 177.73541227691254 H 0.0 **** 0.06
31181 C 99.6244232515456 71.56711199641245 113.85541952203498 C 0.0 **** -0.24
31182 H 99.47593903869718 71.22623342891426 114.87990016932385 H 0.0 **** 0.06
31183 H 99.16275672348935 72.54632250420818 113.72837164831411 H 0.0 **** 0.06
31184 H 99.16767088542407 70.8569738854986 113.16629653195368 H 0.0 **** 0.06
31185 H 100.69279015816271 71.63859919562634 113.64876976010733 H 0.0 **** 0.06
31186 C 159.37159552454966 147.55236121594743 170.4349889392635 C 0.0 **** -0.24
31187 H 158.8098128627584 148.15034961333072 169.71637811445208 H 0.0 **** 0.06
31188 H 159.0087533433952 147.75952789842592 171.4419700177171 H 0.0 **** 0.06
31189 H 160.4294232255823 147.80486487037933 170.36937036737146 H 0.0 **** 0.06
31190 H 159.2357709868432 146.4936040996185 170.21001899824657 H 0.0 **** 0.06
31191 C 30.921350663025123 136.31640248926766 90.54847556221092 C 0.0 **** -0.24
31192 H 31.98038276674319 136.24274431376278 90.29952604792352 H 0.0 **** 0.06
31193 H 30.755735806775945 137.19276401936395 91.17484409838171 H 0.0 **** 0.06
31194 H 30.612909240936816 135.42010748300908 91.08719861627434 H 0.0 **** 0.06
31195 H 30.339206696200407 136.4084149511753 89.63163562618597 H 0.0 **** 0.06
31196 C 3.629950740528713 126.70142448145155 165.51936981078524 C 0.0 **** -0.24
31197 H 2.5483417188722655 126.59789021551184 165.60314290456677 H 0.0 **** 0.06
31198 H 4.057520462193864 126.86167065829771 166.5098483288466 H 0.0 **** 0.06
31199 H 3.8647444600181657 127.55133394324763 164.8791759651491 H 0.0 **** 0.06
31200 H 4.049638315321388 125.79314209060901 165.08509818965044 H 0.0 **** 0.06
31201 C 181.38625154711514 129.76259361130457 148.76151957398866 C 0.0 **** -0.24
31202 H 181.4715610534443 130.83810250386637 148.9190419243983 H 0.0 **** 0.06
31203 H 181.78780974057028 129.23610781547546 149.62775632256822 H 0.0 **** 0.06
31204 H 181.94753833871192 129.4808935190365 147.87076396641493 H 0.0 **** 0.06
31205 H 180.33721742370568 129.4981791710212 148.6293917246513 H 0.0 **** 0.06
31206 C 42.96725632146803 98.3749373124479 177.45062290967482 C 0.0 **** -0.24
31207 H 42.84083718522902 98.15797819395242 176.38982259281315 H 0.0 **** 0.06
31208 H 42.77584174243856 99.43294195089048 177.6304951247297 H 0.0 **** 0.06
31209 H 43.985960092362745 98.13318057406421 177.75321944234884 H 0.0 **** 0.06
31210 H 42.264448584584045 97.77457486278588 178.02999983829017 H 0.0 **** 0.06
31211 C 120.081975111708 138.77794759335745 46.375751682693064 C 0.0 **** -0.24
31212 H 120.01455389753835 138.1501850490896 45.48655431382237 H 0.0 **** 0.06
31213 H 120.7199413159534 139.63699414664927 46.166377563055406 H 0.0 **** 0.06
31214 H 120.5068083708743 138.20096905462094 47.1964530913704 H 0.0 **** 0.06
31215 H 119.08553364317441 139.12399618322382 46.65168673546479 H 0.0 **** 0.06
31216 C 78.87196490639155 107.47338978593585 5.124856892930559 C 0.0 **** -0.24
31217 H 77.82188944104769 107.25731843828093 5.321269847215291 H 0.0 **** 0.06
31218 H 78.95908954085348 108.45307288994822 4.652694069840095 H 0.0 **** 0.06
31219 H 79.28166514376528 106.71207711603726 4.460860580208077 H 0.0 **** 0.06
31220 H 79.42492908978323 107.47296545579313 6.0634184303873795 H 0.0 **** 0.06
31221 C 92.68365820398087 93.37293304621487 58.407069744832285 C 0.0 **** -0.24
31222 H 93.36605475651596 94.22252247482068 58.39985193974469 H 0.0 **** 0.06
31223 H 93.25612154744333 92.4467057185248 58.365069708001016 H 0.0 **** 0.06
31224 H 92.02173725947536 93.43044579896242 57.542604403903454 H 0.0 **** 0.06
31225 H 92.08999192573155 93.39311010396362 59.32135668889059 H 0.0 **** 0.06
31226 C 55.29978168884338 7.025209694725817 105.5353553238565 C 0.0 **** -0.24
31227 H 55.11159698471994 7.684942485355634 104.68849847731464 H 0.0 **** 0.06
31228 H 54.40770878740716 6.970066741511005 106.15872001611827 H 0.0 **** 0.06
31229 H 56.13070400410959 7.417114960777667 106.1229748961281 H 0.0 **** 0.06
31230 H 55.55101015595301 6.029704539820898 105.17056759763243 H 0.0 **** 0.06
31231 C 123.30126876409089 159.27489628782942 62.51376585246251 C 0.0 **** -0.24
31232 H 122.54123786623715 160.05111663743185 62.60083684420209 H 0.0 **** 0.06
31233 H 122.97415385126608 158.52600944482808 61.79265304095716 H 0.0 **** 0.06
31234 H 123.45200229481243 158.8034905649488 63.485479512344924 H 0.0 **** 0.06
31235 H 124.23800849439802 159.72042319177993 62.1769753375946 H 0.0 **** 0.06
31236 C 78.7956840911821 149.21497379335415 157.6738219237618 C 0.0 **** -0.24
31237 H 78.9799226792023 148.34159821285954 158.29946927076918 H 0.0 **** 0.06
31238 H 79.74123899882889 149.58121051966592 157.27250911727333 H 0.0 **** 0.06
31239 H 78.32708254941143 149.99693951034374 158.27180652983768 H 0.0 **** 0.06
31240 H 78.13357341925057 148.93988903911637 156.85254656766875 H 0.0 **** 0.06
31241 C 84.76505827378331 41.8053212260229 2.3657970099614545 C 0.0 **** -0.24
31242 H 83.87298798916053 42.254455932558244 1.9288713942738411 H 0.0 **** 0.06
31243 H 84.47125180907828 41.01756881849272 3.0600154817551584 H 0.0 **** 0.06
31244 H 85.33140166668714 42.56848923364498 2.899651970031698 H 0.0 **** 0.06
31245 H 85.3825082423928 41.379985002581805 1.5744443681261657 H 0.0 **** 0.06
31246 C 164.04030930252793 159.28418138464667 99.1216146841279 C 0.0 **** -0.24
31247 H 164.25455731151524 159.53679153006127 100.15941680149865 H 0.0 **** 0.06
31248 H 164.88532799361195 159.5709403810449 98.49588307542007 H 0.0 **** 0.06
31249 H 163.14728003795398 159.8188070462669 98.79458326134596 H 0.0 **** 0.06
31250 H 163.87171306767686 158.21033448925363 99.0359319080182 H 0.0 **** 0.06
31251 C 151.1489887327857 73.35677914284446 54.74263214041595 C 0.0 **** -0.24
31252 H 151.82201862644774 73.37823004224299 53.885858559324646 H 0.0 **** 0.06
31253 H 151.54489474285248 73.99666495603338 55.53215286591511 H 0.0 **** 0.06
31254 H 151.06458268631786 72.33466401259489 55.111637073636146 H 0.0 **** 0.06
31255 H 150.1650617162196 73.71643175262568 54.441487672154125 H 0.0 **** 0.06
31256 C 18.228940502502176 162.17613521891113 76.38311118204278 C 0.0 **** -0.24
31257 H 18.090266020856284 162.0507267497054 77.45748378742663 H 0.0 **** 0.06
31258 H 18.89980902187102 163.0151758419406 76.19980920507754 H 0.0 **** 0.06
31259 H 17.26518940268545 162.37002519304022 75.91362973711738 H 0.0 **** 0.06
31260 H 18.66065048320587 161.26667228732802 75.96515659857182 H 0.0 **** 0.06
31261 C 85.49121762362235 49.754216083257575 163.61109591593714 C 0.0 **** -0.24
31262 H 85.43522511677334 50.831802606070596 163.4559234448853 H 0.0 **** 0.06
31263 H 86.48014095966523 49.492585618611145 163.987451462814 H 0.0 **** 0.06
31264 H 85.31340103233329 49.24107434835733 162.66581596136737 H 0.0 **** 0.06
31265 H 84.73528167135852 49.45221908928403 164.3364799747332 H 0.0 **** 0.06
31266 C 21.54193621731646 113.41025635269743 176.33668176194124 C 0.0 **** -0.24
31267 H 22.410583554817265 113.82063817639299 175.8216769782136 H 0.0 **** 0.06
31268 H 21.402716888167802 113.92940971062644 177.2843125460618 H 0.0 **** 0.06
31269 H 21.69837245370114 112.34780177915268 176.52319006058886 H 0.0 **** 0.06
31270 H 20.65561981216043 113.5428564990395 175.71562555445433 H 0.0 **** 0.06
31271 C 147.8104180710615 88.9327311520159 12.478439507053622 C 0.0 **** -0.24
31272 H 147.44718596841736 89.87065454520739 12.89828770175933 H 0.0 **** 0.06
31273 H 146.96585476136215 88.34103593601283 12.12429833760524 H 0.0 **** 0.06
31274 H 148.34806006383485 88.37521408881413 13.24583196968851 H 0.0 **** 0.06
31275 H 148.4814668506217 89.14373646138891 11.645683442358035 H 0.0 **** 0.06
31276 C 0.6448132349522666 63.728712642736426 72.49745502432586 C 0.0 **** -0.24
31277 H -0.19342866530971037 63.73456583123179 73.19423018315574 H 0.0 **** 0.06
31278 H 1.4519760666610182 64.34302157543023 72.89744387508193 H 0.0 **** 0.06
31279 H 0.32213289116356236 64.131558601733 71.53764052082221 H 0.0 **** 0.06
31280 H 0.9990514888770292 62.706125388125116 72.36287063237701 H 0.0 **** 0.06
31281 C 173.01678191036342 78.88495465052502 35.19261294226585 C 0.0 **** -0.24
31282 H 172.05247956916332 78.64695555217968 34.74285100009919 H 0.0 **** 0.06
31283 H 173.62958828825694 77.98442701101135 35.23404577088783 H 0.0 **** 0.06
31284 H 172.86201125530877 79.26708474354164 36.20223120147678 H 0.0 **** 0.06
31285 H 173.5208423798473 79.64100842658718 34.59144818190599 H 0.0 **** 0.06
31286 C 128.11297413138323 121.82969691385829 9.569467822414701 C 0.0 **** -0.24
31287 H 127.60275190075443 122.70657383068031 9.16915476285876 H 0.0 **** 0.06
31288 H 127.68347281394797 120.92797491696105 9.131947029757491 H 0.0 **** 0.06
31289 H 127.99167853854932 121.80209306514031 10.65271331145388 H 0.0 **** 0.06
31290 H 129.1730004621869 121.8833783312182 9.323352357346657 H 0.0 **** 0.06
31291 C 83.78362742190936 155.1354896632089 101.25158445727931 C 0.0 **** -0.24
31292 H 83.77762112311139 154.93685489313594 102.32379224540034 H 0.0 **** 0.06
31293 H 82.87752735549194 154.72875957263182 100.80210178169051 H 0.0 **** 0.06
31294 H 84.65696035019414 154.66508919474526 100.80047211681148 H 0.0 **** 0.06
31295 H 83.82206511854739 156.2122184921135 101.08196142645033 H 0.0 **** 0.06
31296 C 61.388813295940906 165.6728504870014 69.52794262538288 C 0.0 **** -0.24
31297 H 62.43687075018285 165.8358071653011 69.77871752649361 H 0.0 **** 0.06
31298 H 60.75868433189174 166.06456592518498 70.32683803973873 H 0.0 **** 0.06
31299 H 61.20569451907038 164.60567366799603 69.40999149355224 H 0.0 **** 0.06
31300 H 61.15413986312224 166.18695679388065 68.59557817803883 H 0.0 **** 0.06
31301 C 24.370710468797 52.3890702342144 165.6281791182233 C 0.0 **** -0.24
31302 H 24.691502657485685 51.77600280575906 166.47077455999548 H 0.0 **** 0.06
31303 H 24.32538562815577 51.7748811730781 164.72887893626046 H 0.0 **** 0.06
31304 H 25.081677089379482 53.20098552784722 165.4794499972232 H 0.0 **** 0.06
31305 H 23.384226642873074 52.80357246586762 165.83666156930022 H 0.0 **** 0.06
31306 C 19.528680993101773 125.51524649717892 63.25308774531831 C 0.0 **** -0.24
31307 H 19.97893006918119 124.63606798709758 63.71410323627131 H 0.0 **** 0.06
31308 H 18.802443106597877 125.20112827707503 62.50360350117717 H 0.0 **** 0.06
31309 H 20.30521295457453 126.11471954368581 62.77890895980529 H 0.0 **** 0.06
31310 H 19.028001828163752 126.11013315203097 64.0176978629555 H 0.0 **** 0.06
31311 C 88.96456939631118 180.28700723035803 149.14042186816445 C 0.0 **** -0.24
31312 H 88.9810736568265 180.61117569185163 150.18109510579225 H 0.0 **** 0.06
31313 H 88.18082678160177 180.82237665217778 148.60583565104315 H 0.0 **** 0.06
31314 H 88.76878347919963 179.21519723730637 149.097194581518 H 0.0 **** 0.06
31315 H 89.92966818658324 180.498453658489 148.67980152442055 H 0.0 **** 0.06
31316 C 116.63309082678158 70.9962590951228 122.64986421463429 C 0.0 **** -0.24
31317 H 117.03909018578348 70.0372638272418 122.32614985063326 H 0.0 **** 0.06
31318 H 115.6145114550307 71.10370451760551 122.27363294327405 H 0.0 **** 0.06
31319 H 117.2518286291755 71.8032444763988 122.25786360209354 H 0.0 **** 0.06
31320 H 116.62485583379204 71.03947746661237 123.73822246442113 H 0.0 **** 0.06
31321 C 16.286372410614085 97.13751404828714 138.1878680732916 C 0.0 **** -0.24
31322 H 15.844842541004695 96.15519479005219 138.02313924763376 H 0.0 **** 0.06
31323 H 16.383854047400696 97.31662517459323 139.2589217198921 H 0.0 **** 0.06
31324 H 15.646646725799172 97.9022926574198 137.7471378868367 H 0.0 **** 0.06
31325 H 17.271552914054702 97.17589006207383 137.72241019623425 H 0.0 **** 0.06
31326 C 117.64158384038382 154.04532754076263 167.90600108863615 C 0.0 **** -0.24
31327 H 118.12047907653056 154.0400003934318 166.92746375775977 H 0.0 **** 0.06
31328 H 117.90917055002359 154.95978878184633 168.43629287441496 H 0.0 **** 0.06
31329 H 117.97593259604048 153.18126254500743 168.47932292760925 H 0.0 **** 0.06
31330 H 116.55894204358754 154.0014065049951 167.78029075192867 H 0.0 **** 0.06
31331 C 183.6083591166523 28.215534268900413 8.685559166136208 C 0.0 **** -0.24
31332 H 183.1861869055491 27.67219331531379 7.839732579557264 H 0.0 **** 0.06
31333 H 184.24832286773398 29.01812167692215 8.317946283838012 H 0.0 **** 0.06
31334 H 184.19633832280857 27.533116242753366 9.299223937307922 H 0.0 **** 0.06
31335 H 182.80128010261024 28.63953372809044 9.283435657926432 H 0.0 **** 0.06
31336 C 31.32979952774012 97.53566152033312 185.0434364384925 C 0.0 **** -0.24
31337 H 31.033977377314585 97.39124975367298 186.08276741169723 H 0.0 **** 0.06
31338 H 32.4074159007822 97.40105408968043 184.95089914133234 H 0.0 **** 0.06
31339 H 31.060694303850667 98.54401496841126 184.72654512775182 H 0.0 **** 0.06
31340 H 30.81609875468139 96.80821960906678 184.4156306385603 H 0.0 **** 0.06
31341 C 26.536350914093134 124.3736285360525 98.76927549723517 C 0.0 **** -0.24
31342 H 26.863246044708347 124.17546596638884 97.74875870660027 H 0.0 **** 0.06
31343 H 25.482289859989805 124.11365001933153 98.87001697381062 H 0.0 **** 0.06
31344 H 26.67398787636185 125.4313050046117 98.99593590367725 H 0.0 **** 0.06
31345 H 27.127264534584867 123.7739393403531 99.46263352936653 H 0.0 **** 0.06
31346 C 87.95116499430127 85.22199937741595 118.86540001820997 C 0.0 **** -0.24
31347 H 87.25530939629009 85.3365474319495 119.69728470038542 H 0.0 **** 0.06
31348 H 88.44423844642206 84.25284857619033 118.9353045083535 H 0.0 **** 0.06
31349 H 88.69815621047654 86.01406414290204 118.90623954523808 H 0.0 **** 0.06
31350 H 87.40498691142373 85.28575764027426 117.92439430987257 H 0.0 **** 0.06
31351 C 25.299910905705985 137.2911147570706 78.0013802406157 C 0.0 **** -0.24
31352 H 26.067009130546495 138.00099734424168 77.69190747897837 H 0.0 **** 0.06
31353 H 24.568810559625575 137.17507501753784 77.19989257276107 H 0.0 **** 0.06
31354 H 24.801737027326226 137.6619015454417 78.89712814363958 H 0.0 **** 0.06
31355 H 25.762008507417278 136.32797566093154 78.21465052792398 H 0.0 **** 0.06
31356 C 59.05193058762589 39.04056061927757 127.76356247974536 C 0.0 **** -0.24
31357 H 58.5608492159284 39.1658438351421 126.79884150888978 H 0.0 **** 0.06
31358 H 58.840640231410575 39.905141480384074 128.39339952327236 H 0.0 **** 0.06
31359 H 60.128003601951534 38.954579971768595 127.61362732039873 H 0.0 **** 0.06
31360 H 58.677859241732676 38.13826673623305 128.24655494482397 H 0.0 **** 0.06
31361 C 6.071028568372469 58.12178859414372 16.244404401384706 C 0.0 **** -0.24
31362 H 5.117923787598215 58.32198874857221 16.734333527451547 H 0.0 **** 0.06
31363 H 6.504594182970322 57.20868234153458 16.654487609038597 H 0.0 **** 0.06
31364 H 6.750866228357012 58.95658649573198 16.416196702114156 H 0.0 **** 0.06
31365 H 5.910128789321163 57.99819369047526 15.173918110263749 H 0.0 **** 0.06
31366 C 24.4275105592355 40.197807811432995 65.2783199920771 C 0.0 **** -0.24
31367 H 25.359426806125242 39.64667906910037 65.14925179171864 H 0.0 **** 0.06
31368 H 23.818492564684675 39.70685845557432 66.0378897352561 H 0.0 **** 0.06
31369 H 23.88393707749755 40.21824899823065 64.33346370436252 H 0.0 **** 0.06
31370 H 24.649052618409698 41.21738531806665 65.59258766372531 H 0.0 **** 0.06
31371 C 82.45373349201648 43.964566719352064 30.966594606348394 C 0.0 **** -0.24
31372 H 82.53460229472319 44.606251903911016 31.844962277986525 H 0.0 **** 0.06
31373 H 81.81145981970019 44.44214842561814 30.226065316790425 H 0.0 **** 0.06
31374 H 82.02328813132766 43.00536319546484 31.256173234423585 H 0.0 **** 0.06
31375 H 83.4443019995357 43.805511512549 30.54206568755677 H 0.0 **** 0.06
31376 C 69.5923044126569 165.58572695146972 6.0196582287944125 C 0.0 **** -0.24
31377 H 68.7251603296578 166.0870393040418 6.449897039265352 H 0.0 **** 0.06
31378 H 69.38073472452635 165.31783610634045 4.9841119262599705 H 0.0 **** 0.06
31379 H 69.81052371973617 164.6841105269354 6.591362262661221 H 0.0 **** 0.06
31380 H 70.4521009174367 166.25457718605475 6.053550540854189 H 0.0 **** 0.06
31381 C 158.83645883299485 74.72009376134174 154.10833366010723 C 0.0 **** -0.24
31382 H 158.57300752208548 73.97172883417292 154.85529395931448 H 0.0 **** 0.06
31383 H 159.35026771714914 74.23856507951976 153.27642686345072 H 0.0 **** 0.06
31384 H 159.49176595612664 75.46654973717348 154.55718376142275 H 0.0 **** 0.06
31385 H 157.93037955277808 75.2048832116563 153.74440248727774 H 0.0 **** 0.06
31386 C 92.11016045496002 65.35436208687935 8.953376392351231 C 0.0 **** -0.24
31387 H 91.72099799219531 65.01092945272774 9.912034295053871 H 0.0 **** 0.06
31388 H 91.3312651991581 65.89973513398604 8.420071794946153 H 0.0 **** 0.06
31389 H 92.42231999927843 64.49461192727779 8.3605025057131 H 0.0 **** 0.06
31390 H 92.9643300101233 66.00960212167843 9.122083872569277 H 0.0 **** 0.06
31391 C 173.28827200650548 75.09243701784618 39.55168506263735 C 0.0 **** -0.24
31392 H 173.51140125090149 76.10617734460482 39.8845758219411 H 0.0 **** 0.06
31393 H 172.27360754326406 75.05565539480313 39.154274040504305 H 0.0 **** 0.06
31394 H 173.37329915501869 74.40649415013337 40.39482689095121 H 0.0 **** 0.06
31395 H 173.99410320747316 74.80180481172482 38.77369174924581 H 0.0 **** 0.06
31396 C 88.6349094443362 113.2798029515863 72.95136635848894 C 0.0 **** -0.24
31397 H 87.79323567419318 113.57966255472212 72.32595778803145 H 0.0 **** 0.06
31398 H 89.307444629924 112.64550809685835 72.37400960441197 H 0.0 **** 0.06
31399 H 88.26600995718086 112.72694067246084 73.81543628523276 H 0.0 **** 0.06
31400 H 89.17022925792897 114.16604715410068 73.28935338142463 H 0.0 **** 0.06
31401 C 7.435717973746961 33.507005491628476 79.34548695777329 C 0.0 **** -0.24
31402 H 7.284038919062198 32.51559984147457 79.77180098862465 H 0.0 **** 0.06
31403 H 7.7355443291321535 34.19888081173282 80.13239677100415 H 0.0 **** 0.06
31404 H 6.506400195004119 33.852694174416314 78.89068347240851 H 0.0 **** 0.06
31405 H 8.2153614506893 33.459866042664174 78.58542164734695 H 0.0 **** 0.06
31406 C 119.29888780333665 68.1945351990071 39.20033178025628 C 0.0 **** -0.24
31407 H 118.48792699971064 68.92252468128927 39.17051128216761 H 0.0 **** 0.06
31408 H 118.8822215324238 67.1869616413385 39.203813980585295 H 0.0 **** 0.06
31409 H 119.89018520925306 68.34686990227235 40.103295168838656 H 0.0 **** 0.06
31410 H 119.93423828107383 68.32200932618021 38.324702038521565 H 0.0 **** 0.06
31411 C 55.56607304509669 81.04951862083004 17.845044651929186 C 0.0 **** -0.24
31412 H 56.43687699861533 80.556919034732 18.27936886532663 H 0.0 **** 0.06
31413 H 54.727259156683175 80.3530584626019 17.82677188517144 H 0.0 **** 0.06
31414 H 55.797862899365725 81.36734968155645 16.829029781463902 H 0.0 **** 0.06
31415 H 55.30322506406975 81.91893873621882 18.447627397004283 H 0.0 **** 0.06
31416 C 59.83250637225933 45.989159933612655 139.53553300796443 C 0.0 **** -0.24
31417 H 59.2647531736817 45.38670078743024 140.24454545028857 H 0.0 **** 0.06
31418 H 60.86895604753721 45.65210758667956 139.52185283170888 H 0.0 **** 0.06
31419 H 59.79492618473887 47.03612744398475 139.83706100683997 H 0.0 **** 0.06
31420 H 59.401634329589115 45.88114893780329 138.54029521539104 H 0.0 **** 0.06
31421 C 105.51071379799765 120.60599913683461 176.84995472571308 C 0.0 **** -0.24
31422 H 104.69989070824056 120.88902151920126 176.17796243683318 H 0.0 **** 0.06
31423 H 105.92887516026332 121.49995141302082 177.31258715503208 H 0.0 **** 0.06
31424 H 106.287727438442 120.09142587951499 176.2837925999113 H 0.0 **** 0.06
31425 H 105.12525041283772 119.94241244118376 177.62394053717534 H 0.0 **** 0.06
31426 C 55.51512552878489 88.89702917736514 5.698687299740186 C 0.0 **** -0.24
31427 H 55.45123272026649 89.1029994869005 6.76763974494591 H 0.0 **** 0.06
31428 H 54.50975615177765 88.79480566154211 5.288574919871962 H 0.0 **** 0.06
31429 H 56.06875465741672 87.971973388626 5.539863740519365 H 0.0 **** 0.06
31430 H 56.02955510987363 89.71923111577104 5.200608433011865 H 0.0 **** 0.06
31431 C 125.93401641956855 145.6934810728136 38.843779031347026 C 0.0 **** -0.24
31432 H 126.05594561868291 144.90480198261895 39.58621349042505 H 0.0 **** 0.06
31433 H 126.49940378484253 146.5727238726517 39.15217582583648 H 0.0 **** 0.06
31434 H 124.87733462948408 145.9515311999544 38.75916730309382 H 0.0 **** 0.06
31435 H 126.3003000400967 145.344328667958 37.87866128908121 H 0.0 **** 0.06
31436 C 42.50407736393848 104.7888229311586 83.75492791598987 C 0.0 **** -0.24
31437 H 41.99652294516221 104.55215625160228 84.69129313044542 H 0.0 **** 0.06
31438 H 43.56820601813331 104.92888081477666 83.94460225881818 H 0.0 **** 0.06
31439 H 42.084403302792595 105.70374800221173 83.33643637952359 H 0.0 **** 0.06
31440 H 42.36376529651682 103.96941254567899 83.04986230876258 H 0.0 **** 0.06
31441 C 148.28453235274355 17.78456273491244 148.42299084311233 C 0.0 **** -0.24
31442 H 149.28043134745764 17.501096997171658 148.76453256644987 H 0.0 **** 0.06
31443 H 147.62207914545922 17.888137603111744 149.28372797827586 H 0.0 **** 0.06
31444 H 147.89670253154918 17.015600175046245 147.75513684282623 H 0.0 **** 0.06
31445 H 148.3404326946453 18.73469141447046 147.89122583800474 H 0.0 **** 0.06
31446 C 96.03870000980982 110.32046263330356 89.77208583903223 C 0.0 **** -0.24
31447 H 96.24559549079521 110.33692674747577 88.70237628141382 H 0.0 **** 0.06
31448 H 95.1558927252866 109.70935217048758 89.96232959314597 H 0.0 **** 0.06
31449 H 95.86044580368673 111.33608166765246 90.12421047206828 H 0.0 **** 0.06
31450 H 96.89404004154795 109.8980658858578 90.30068948480562 H 0.0 **** 0.06
31451 C 29.887419915590954 110.15180260589837 30.60468231412291 C 0.0 **** -0.24
31452 H 30.791416196974808 109.9819721651143 31.190231396650844 H 0.0 **** 0.06
31453 H 29.574458425838827 111.19048967215694 30.71385494425047 H 0.0 **** 0.06
31454 H 29.095706145073223 109.49242394142608 30.960333048760532 H 0.0 **** 0.06
31455 H 30.09118917990088 109.94207999680977 29.554934791194967 H 0.0 **** 0.06
31456 C 114.8546960221551 5.26819494302373 97.2881522643212 C 0.0 **** -0.24
31457 H 115.77759050362444 4.694353574721191 97.38029486209633 H 0.0 **** 0.06
31458 H 114.03327755111577 4.709113462627897 97.73514100260756 H 0.0 **** 0.06
31459 H 114.64242029550253 5.447084631141024 96.2344118589054 H 0.0 **** 0.06
31460 H 114.9683792546392 6.223055566281545 97.80279069220079 H 0.0 **** 0.06
31461 C 40.797802323985195 51.6892446319045 125.77035531795819 C 0.0 **** -0.24
31462 H 40.78813034989321 50.66980511667762 126.15778392335689 H 0.0 **** 0.06
31463 H 41.70246955379656 52.19619548012406 126.10594197218036 H 0.0 **** 0.06
31464 H 39.922892529561466 52.225401582002974 126.13722985444939 H 0.0 **** 0.06
31465 H 40.77831989786711 51.66330377211543 124.68115246581532 H 0.0 **** 0.06
31466 C 45.94418773528929 156.5217362811639 88.3286188566741 C 0.0 **** -0.24
31467 H 46.22874373517948 157.56770640650052 88.21096783897099 H 0.0 **** 0.06
31468 H 46.23896208801722 155.96319865614825 87.44014310057281 H 0.0 **** 0.06
31469 H 44.8648459689378 156.45178328727226 88.46121326547188 H 0.0 **** 0.06
31470 H 46.44595056135262 156.10556619461826 89.20261823131096 H 0.0 **** 0.06
31471 C 14.994187767000255 32.02355053899248 173.34289592154755 C 0.0 **** -0.24
31472 H 14.396051205972299 32.621111293287754 172.65465601217824 H 0.0 **** 0.06
31473 H 15.78919351854455 32.64080686741718 173.762477698595 H 0.0 **** 0.06
31474 H 15.431510947225604 31.180295230126262 172.8077330502107 H 0.0 **** 0.06
31475 H 14.358030818385828 31.652856434942834 174.1473395860035 H 0.0 **** 0.06
31476 C 53.57574950768918 20.673210691320918 30.175605741197984 C 0.0 **** -0.24
31477 H 52.57866604555696 21.089317587215504 30.32029847690967 H 0.0 **** 0.06
31478 H 54.09118673757156 20.623874239596205 31.134467944841788 H 0.0 **** 0.06
31479 H 54.138177780228375 21.30819006998354 29.49128565298423 H 0.0 **** 0.06
31480 H 53.491402323787824 19.670747689726994 29.755486880389725 H 0.0 **** 0.06
31481 C 25.2714336168998 183.60378559293406 57.36309386977881 C 0.0 **** -0.24
31482 H 25.3958517195108 182.7352070424329 58.01049314659082 H 0.0 **** 0.06
31483 H 25.832519032806516 183.45134162508026 56.44021283895569 H 0.0 **** 0.06
31484 H 25.643216739319826 184.49234978277195 57.87223169607779 H 0.0 **** 0.06
31485 H 24.214928249209663 183.7344380317786 57.12837548954211 H 0.0 **** 0.06
31486 C 44.197462332491114 180.86548615920466 179.79496099502393 C 0.0 **** -0.24
31487 H 44.27872423236607 179.90676695358775 179.28193919014927 H 0.0 **** 0.06
31488 H 44.65905947670433 180.79000390422664 180.78018680767366 H 0.0 **** 0.06
31489 H 43.14610070283095 181.12938592954737 179.90543260235296 H 0.0 **** 0.06
31490 H 44.70594441885396 181.63333843805782 179.21227480301332 H 0.0 **** 0.06
31491 C 181.53059638310773 22.251781288678927 8.55005630870619 C 0.0 **** -0.24
31492 H 182.05350426861597 22.72193500306264 7.717810451499986 H 0.0 **** 0.06
31493 H 180.4599293402314 22.236744392135023 8.344519558958837 H 0.0 **** 0.06
31494 H 181.71783170917058 22.81803919163562 9.462780418036289 H 0.0 **** 0.06
31495 H 181.89112021441306 21.23040656788234 8.675114806329589 H 0.0 **** 0.06
31496 C 58.338199956656865 34.96202168194124 146.70642330254694 C 0.0 **** -0.24
31497 H 58.13045090800409 33.89266622850663 146.66670411223996 H 0.0 **** 0.06
31498 H 57.51249410515868 35.508693936730324 146.25038200120565 H 0.0 **** 0.06
31499 H 59.258345464362606 35.17292620366598 146.1627443009209 H 0.0 **** 0.06
31500 H 58.45046024558425 35.2719142996003 147.74527774381892 H 0.0 **** 0.06
31501 C 23.753759167710314 64.41804232503942 29.18615687614519 C 0.0 **** -0.24
31502 H 23.571536974095125 63.37709253250591 29.454210934045335 H 0.0 **** 0.06
31503 H 23.228103815662166 64.65164508016636 28.259958958682404 H 0.0 **** 0.06
31504 H 24.823118773585975 64.57461639651912 29.046912701466226 H 0.0 **** 0.06
31505 H 23.391349374035144 65.06654835524532 29.983523431363835 H 0.0 **** 0.06
31506 C 82.62476175313526 37.27009752714571 166.4934651756653 C 0.0 **** -0.24
31507 H 83.69615523044524 37.122885387406654 166.62626933008048 H 0.0 **** 0.06
31508 H 82.45284262518969 37.95599148990982 165.6634473028866 H 0.0 **** 0.06
31509 H 82.20007438001281 37.68926807079171 167.4055638824056 H 0.0 **** 0.06
31510 H 82.15127685040609 36.31201623586145 166.27807794479915 H 0.0 **** 0.06
31511 C 128.36456122321835 101.30268284945826 35.04233469933274 C 0.0 **** -0.24
31512 H 127.62428691701523 100.50802320264533 34.950414318003 H 0.0 **** 0.06
31513 H 128.63794314242682 101.42453178039345 36.090934982251326 H 0.0 **** 0.06
31514 H 127.94394097850115 102.23570240576821 34.6662063958255 H 0.0 **** 0.06
31515 H 129.25038423434063 101.04307471027333 34.46266878693717 H 0.0 **** 0.06
31516 C 106.67043821728703 14.40102337930756 103.65728818824171 C 0.0 **** -0.24
31517 H 106.77709302148963 14.998220482923841 104.56283428518954 H 0.0 **** 0.06
31518 H 105.6196419524926 14.362039763682418 103.3699959085411 H 0.0 **** 0.06
31519 H 107.03459030036242 13.391125886597138 103.84242231534274 H 0.0 **** 0.06
31520 H 107.25017912179516 14.85513762827955 102.85372045978421 H 0.0 **** 0.06
31521 C 90.50606742149726 162.6145129446149 159.5945357632555 C 0.0 **** -0.24
31522 H 90.2539390029663 163.56905699414483 160.05663021795368 H 0.0 **** 0.06
31523 H 89.93193353058895 162.4933663503273 158.67557757147682 H 0.0 **** 0.06
31524 H 90.26782762960978 161.80345415422025 160.2821452349002 H 0.0 **** 0.06
31525 H 91.57136523698442 162.59483217260228 159.36264868427034 H 0.0 **** 0.06
31526 C 123.77227527496144 68.64066820374975 20.90580407184072 C 0.0 **** -0.24
31527 H 123.11463635969814 69.24247860012987 21.532903475940785 H 0.0 **** 0.06
31528 H 123.97862007388191 69.1754959165166 19.97858699317228 H 0.0 **** 0.06
31529 H 123.28679279127697 67.69181773315482 20.67689161400034 H 0.0 **** 0.06
31530 H 124.70686850638889 68.45311045472472 21.43440973288793 H 0.0 **** 0.06
31531 C 31.772097094521826 143.13768726583362 137.35642089741083 C 0.0 **** -0.24
31532 H 31.912276077035756 143.90785847250325 138.11542521113734 H 0.0 **** 0.06
31533 H 30.838963432064475 142.60713321756606 137.5464954599214 H 0.0 **** 0.06
31534 H 32.60450813455327 142.43573446256556 137.39401690610532 H 0.0 **** 0.06
31535 H 31.731843931733067 143.60286066435384 136.37126671347522 H 0.0 **** 0.06
31536 C 101.05070601195246 69.55466456943576 50.993031268869146 C 0.0 **** -0.24
31537 H 100.45952705268593 69.56784218346155 50.07797218630773 H 0.0 **** 0.06
31538 H 101.64086599547267 68.6380922591821 51.03047187516759 H 0.0 **** 0.06
31539 H 100.38550711370408 69.5937508363091 51.85544708779466 H 0.0 **** 0.06
31540 H 101.71663604459394 70.41623254586857 51.00759575470977 H 0.0 **** 0.06
31541 C 172.9921306352461 142.78934209295562 28.697331368562928 C 0.0 **** -0.24
31542 H 173.7187684560292 143.4566295366272 29.160360846570242 H 0.0 **** 0.06
31543 H 171.99554046830718 143.01894316144256 29.07680705477364 H 0.0 **** 0.06
31544 H 173.2428979005502 141.75600648951746 28.936886521581755 H 0.0 **** 0.06
31545 H 173.01029244837872 142.92758120301863 27.616132280349305 H 0.0 **** 0.06
31546 C 163.25815951528986 12.82814261745466 185.19768644501676 C 0.0 **** -0.24
31547 H 164.31611527369364 12.865301063234142 184.9392387516939 H 0.0 **** 0.06
31548 H 162.68641950762137 12.477649264241194 184.3374363783265 H 0.0 **** 0.06
31549 H 162.91763158178725 13.82438028050504 185.47962722678707 H 0.0 **** 0.06
31550 H 163.11273153633297 12.143851394261446 186.03437493027707 H 0.0 **** 0.06
31551 C 106.60826368494538 62.74019907485098 56.68553363367677 C 0.0 **** -0.24
31552 H 106.37759305847852 62.18751419389626 55.773995985545184 H 0.0 **** 0.06
31553 H 107.26057691061185 62.13933653369986 57.31898846107153 H 0.0 **** 0.06
31554 H 105.68399022546994 62.9596286749684 57.21979909222533 H 0.0 **** 0.06
31555 H 107.10930703858615 63.67326753741327 56.427808654862545 H 0.0 **** 0.06
31556 C 85.12344241697048 76.97653167004711 133.85337949278284 C 0.0 **** -0.24
31557 H 84.10811289048276 76.90057285339276 134.24342383801303 H 0.0 **** 0.06
31558 H 85.10900087434084 76.84208063533947 132.77212942611413 H 0.0 **** 0.06
31559 H 85.74504733057195 76.20440889706009 134.3085060221062 H 0.0 **** 0.06
31560 H 85.53070627751377 77.95922515901225 134.0929458481653 H 0.0 **** 0.06
31561 C 20.460838016914494 176.6893720031544 37.37553018680188 C 0.0 **** -0.24
31562 H 20.64735466423832 177.7472984624669 37.5619665736118 H 0.0 **** 0.06
31563 H 19.82329869411734 176.5821491919071 36.49732049024503 H 0.0 **** 0.06
31564 H 19.964772359812457 176.25077254541455 38.24157738660351 H 0.0 **** 0.06
31565 H 21.408164203227898 176.17920039233618 37.20171309091161 H 0.0 **** 0.06
31566 C 96.61738014337179 176.05591966397722 50.51598167457665 C 0.0 **** -0.24
31567 H 96.34674603934242 177.10862899759812 50.4361155562632 H 0.0 **** 0.06
31568 H 97.53832766237865 175.960838935159 51.09244131737633 H 0.0 **** 0.06
31569 H 96.76913666990355 175.6430949481437 49.518310340327616 H 0.0 **** 0.06
31570 H 95.81743767635793 175.51102199770872 51.016377442064595 H 0.0 **** 0.06
31571 C 165.84549563008486 63.666223004148264 101.12598231001478 C 0.0 **** -0.24
31572 H 165.22005389214598 64.52427131007386 101.37256313537803 H 0.0 **** 0.06
31573 H 166.24243766894148 63.230348457005846 102.04302744005311 H 0.0 **** 0.06
31574 H 166.66856480558303 63.988016559350285 100.48894826745932 H 0.0 **** 0.06
31575 H 165.24765503034897 62.92186341309227 100.5990081109013 H 0.0 **** 0.06
31576 C 34.55185642974479 59.62029732741324 18.234424729274487 C 0.0 **** -0.24
31577 H 33.807920104987005 59.31467053350836 18.970643711432942 H 0.0 **** 0.06
31578 H 34.15084998139193 60.43272964819643 17.628522169043762 H 0.0 **** 0.06
31579 H 34.79553156688944 58.77403362705279 17.59185524007497 H 0.0 **** 0.06
31580 H 35.45209027406726 59.958797361652444 18.74656249928229 H 0.0 **** 0.06
31581 C 107.1746426069995 22.550108112453998 69.90755706735844 C 0.0 **** -0.24
31582 H 107.21769697515066 23.046533424575827 68.93752685006076 H 0.0 **** 0.06
31583 H 106.52324456021267 21.677966766798278 69.83940680730869 H 0.0 **** 0.06
31584 H 106.77922522908113 23.2411342961652 70.65171246944355 H 0.0 **** 0.06
31585 H 108.17527488933092 22.235131647582563 70.19955735325183 H 0.0 **** 0.06
31586 C 4.384712237404585 72.93780458653974 62.87989219192329 C 0.0 **** -0.24
31587 H 3.827931965664561 73.30234741319983 62.016287169494774 H 0.0 **** 0.06
31588 H 4.640603014679982 73.7761715349051 63.527761879848185 H 0.0 **** 0.06
31589 H 5.297946784424994 72.4471688549252 62.541706401801775 H 0.0 **** 0.06
31590 H 3.772279143577066 72.22441705734366 63.43187617388031 H 0.0 **** 0.06
31591 C 165.7651762063025 56.16757828634594 141.19275826982766 C 0.0 **** -0.24
31592 H 165.887017852106 57.24018261145008 141.33968311093554 H 0.0 **** 0.06
31593 H 166.2233676397648 55.63243087047883 142.02408022906917 H 0.0 **** 0.06
31594 H 166.24663236263643 55.87169809647328 140.26056180354112 H 0.0 **** 0.06
31595 H 164.70269649318743 55.92549934834531 141.14583227592044 H 0.0 **** 0.06
31596 C 80.12477474282366 171.90739888499994 19.758954732168554 C 0.0 **** -0.24
31597 H 79.41150058731421 172.44186804623064 20.38590691757092 H 0.0 **** 0.06
31598 H 80.6501447820915 171.1647284340014 20.359845154482926 H 0.0 **** 0.06
31599 H 80.84300843075602 172.6130679486358 19.342025608212666 H 0.0 **** 0.06
31600 H 79.59319317251516 171.40807842318353 18.9480543022218 H 0.0 **** 0.06
31601 C 156.81579258278063 50.05196760881151 99.74758840196205 C 0.0 **** -0.24
31602 H 156.6708515264559 48.98626032305879 99.91985097130362 H 0.0 **** 0.06
31603 H 157.66742016374323 50.40278428697087 100.3310749074621 H 0.0 **** 0.06
31604 H 155.91921514680996 50.59384584176783 100.05073568761219 H 0.0 **** 0.06
31605 H 157.00483544174307 50.226105427482025 98.6885727421207 H 0.0 **** 0.06
31606 C 32.535816993157994 107.4824484202848 16.34016337626423 C 0.0 **** -0.24
31607 H 33.44369483996937 108.08128687143157 16.417167951842032 H 0.0 **** 0.06
31608 H 32.442915418293296 107.09332970738699 15.325649050550055 H 0.0 **** 0.06
31609 H 31.670767631743118 108.10434062751192 16.57211610187875 H 0.0 **** 0.06
31610 H 32.58805876813841 106.65308235304012 17.04521732895239 H 0.0 **** 0.06
31611 C 151.5505766601309 22.061287203319523 170.66236823679623 C 0.0 **** -0.24
31612 H 151.29312632187538 22.52887876995017 171.613174649511 H 0.0 **** 0.06
31613 H 151.75451200141936 21.002256815415613 170.82167733095594 H 0.0 **** 0.06
31614 H 152.43511376408244 22.544259621747614 170.2481375075319 H 0.0 **** 0.06
31615 H 150.71720383159908 22.170769581514435 169.96768433387336 H 0.0 **** 0.06
31616 C 146.15924644169124 128.36824279043617 94.12723850595256 C 0.0 **** -0.24
31617 H 146.005512021973 127.31328031323015 94.35277840696148 H 0.0 **** 0.06
31618 H 146.4124910287699 128.90200765095597 95.04389910057125 H 0.0 **** 0.06
31619 H 145.24477084781768 128.7854680750625 93.70405787551073 H 0.0 **** 0.06
31620 H 146.97268206216674 128.47125417328323 93.40987285308279 H 0.0 **** 0.06
31621 C 181.68849711982023 54.805781125106066 38.16437842164311 C 0.0 **** -0.24
31622 H 181.3365172681207 55.82495353031007 38.0056108290523 H 0.0 **** 0.06
31623 H 182.3830736318242 54.788318381759524 39.00486037309946 H 0.0 **** 0.06
31624 H 182.1954124496192 54.45366971006571 37.265703411190316 H 0.0 **** 0.06
31625 H 180.83945307332647 54.15779556804412 38.37955570315634 H 0.0 **** 0.06
31626 C 17.027285576702603 97.89321667245223 5.074586729467114 C 0.0 **** -0.24
31627 H 16.816935364501006 96.82677003490743 4.993563762533654 H 0.0 **** 0.06
31628 H 18.103058054962155 98.04487119448835 5.164713594263446 H 0.0 **** 0.06
31629 H 16.52827638302618 98.29666911183502 5.955657848175065 H 0.0 **** 0.06
31630 H 16.660982324059177 98.40379792520183 4.183223107395065 H 0.0 **** 0.06
31631 C 177.2902871000998 53.838160678775296 74.57530531917519 C 0.0 **** -0.24
31632 H 176.67113390048348 54.056274298864196 75.44585350513276 H 0.0 **** 0.06
31633 H 176.76698013913526 54.14834936595986 73.67096900951815 H 0.0 **** 0.06
31634 H 177.48963936944958 52.76803134263628 74.53170247339084 H 0.0 **** 0.06
31635 H 178.23229461697838 54.380492019304484 74.65457644014357 H 0.0 **** 0.06
31636 C 174.94009871363738 22.559331701271788 75.40671055025825 C 0.0 **** -0.24
31637 H 174.13397609396748 22.278068217472367 74.72848746129193 H 0.0 **** 0.06
31638 H 174.95655353002354 21.874471142702646 76.25444259159366 H 0.0 **** 0.06
31639 H 174.77587726273669 23.577174537297196 75.76249373610636 H 0.0 **** 0.06
31640 H 175.89212734865174 22.5084656741804 74.87880859263112 H 0.0 **** 0.06
31641 C 24.970711198744482 0.9790713761967709 1.946739342353304 C 0.0 **** -0.24
31642 H 25.252530417576736 1.2867769185718316 2.9529672256737953 H 0.0 **** 0.06
31643 H 23.886220587602395 0.8775091344470809 1.888022797682872 H 0.0 **** 0.06
31644 H 25.437643741226736 0.0217970001986032 1.715778037833175 H 0.0 **** 0.06
31645 H 25.305091787304605 1.7289664558802542 1.2309814823490441 H 0.0 **** 0.06
31646 C 23.847186046773103 91.79336612460617 59.923545741698845 C 0.0 **** -0.24
31647 H 23.642247721698894 91.94916724656963 58.86423008313707 H 0.0 **** 0.06
31648 H 24.206816149970706 92.72362216557599 60.36453585160535 H 0.0 **** 0.06
31649 H 24.606475361924225 91.01924433858932 60.03660577457475 H 0.0 **** 0.06
31650 H 22.932187475966472 91.48103156842598 60.42791379170335 H 0.0 **** 0.06
31651 C 149.9166918439821 41.90392146415995 143.09342960802343 C 0.0 **** -0.24
31652 H 149.05381272148645 42.56606225714508 143.02175287470817 H 0.0 **** 0.06
31653 H 150.752126925305 42.44446717762625 143.54098963509648 H 0.0 **** 0.06
31654 H 150.19604059052295 41.562272652494755 142.09726209902618 H 0.0 **** 0.06
31655 H 149.6646658976133 41.04522549421797 143.71558514573871 H 0.0 **** 0.06
31656 C 168.99301965581478 157.6574968927836 67.07966546505708 C 0.0 **** -0.24
31657 H 168.74833106772866 157.9156214518966 66.0499191177356 H 0.0 **** 0.06
31658 H 168.4546858361046 158.32063490461883 67.75796855166685 H 0.0 **** 0.06
31659 H 170.0664545043566 157.7699916027853 67.23649647047549 H 0.0 **** 0.06
31660 H 168.7039068639308 156.62486016869394 67.27451296342656 H 0.0 **** 0.06
31661 C 153.1630281367345 179.29434242168986 135.9544075425353 C 0.0 **** -0.24
31662 H 152.44852217457938 178.48319551908133 136.1019078759452 H 0.0 **** 0.06
31663 H 154.16783877244978 178.88016935172328 135.86371768656448 H 0.0 **** 0.06
31664 H 153.1240908630369 179.97158183182455 136.8069273399936 H 0.0 **** 0.06
31665 H 152.91016179931347 179.83900855407524 135.04476872330366 H 0.0 **** 0.06
31666 C 18.02784488604363 62.946544475149594 90.56128108664505 C 0.0 **** -0.24
31667 H 17.894192606317112 64.00822964725542 90.77182338150324 H 0.0 **** 0.06
31668 H 18.373911957077574 62.8215901535485 89.5347084438704 H 0.0 **** 0.06
31669 H 17.0781367699759 62.42813245981429 90.69061330644864 H 0.0 **** 0.06
31670 H 18.765586070703726 62.53163302951374 91.247543996815 H 0.0 **** 0.06
31671 C 169.6423999835538 8.40556600152496 69.21150886668056 C 0.0 **** -0.24
31672 H 170.64455152218392 8.806055939468592 69.05341552153659 H 0.0 **** 0.06
31673 H 169.48684391945906 8.225602500141235 70.27509233999665 H 0.0 **** 0.06
31674 H 169.53540709433872 7.468577519475559 68.66353030115901 H 0.0 **** 0.06
31675 H 168.9046454591841 9.123380514302255 68.85205933463075 H 0.0 **** 0.06
31676 C 145.85701634681112 116.39914620050565 153.41936483072732 C 0.0 **** -0.24
31677 H 146.32001468681244 116.49815759678519 152.43794309394468 H 0.0 **** 0.06
31678 H 144.77206204110922 116.40563650184397 153.31070750097538 H 0.0 **** 0.06
31679 H 146.16425046451843 117.23148574583662 154.0517930225577 H 0.0 **** 0.06
31680 H 146.17111328731303 115.46028281286341 153.87626420008675 H 0.0 **** 0.06
31681 C 175.36543231562035 170.65704882379225 79.70759221578902 C 0.0 **** -0.24
31682 H 176.3006405239297 170.10244369123905 79.79120527831739 H 0.0 **** 0.06
31683 H 174.9230003988832 170.47553935236033 78.72762706496742 H 0.0 **** 0.06
31684 H 175.5650150860821 171.72278498512458 79.82488904908891 H 0.0 **** 0.06
31685 H 174.6772176469496 170.32786342313784 80.48536909658999 H 0.0 **** 0.06
31686 C 102.82185295545933 106.11576831373559 37.07053326987079 C 0.0 **** -0.24
31687 H 103.35753312867918 107.05804041981257 37.18057582807029 H 0.0 **** 0.06
31688 H 103.4689633557689 105.2918861002589 37.37436321319632 H 0.0 **** 0.06
31689 H 102.53001056535503 105.98341254802195 36.028723146689345 H 0.0 **** 0.06
31690 H 101.93113581009855 106.1283435111299 37.69835823324908 H 0.0 **** 0.06
31691 C 178.177408084554 32.279704153360626 25.461324079626237 C 0.0 **** -0.24
31692 H 179.0058918614065 32.12418174470076 26.15215167608804 H 0.0 **** 0.06
31693 H 177.26278755353545 32.46314996329113 26.02645266512623 H 0.0 **** 0.06
31694 H 178.0495519523758 31.39169473650952 24.842859504184545 H 0.0 **** 0.06
31695 H 178.38994467428603 33.13878149385761 24.825196987058916 H 0.0 **** 0.06
31696 C 16.344200490756364 28.21431563527304 117.95749495578241 C 0.0 **** -0.24
31697 H 16.388534194132262 28.76894201822745 118.89477264163202 H 0.0 **** 0.06
31698 H 17.35354107758635 27.94873131732038 117.64320223776957 H 0.0 **** 0.06
31699 H 15.876121320091919 28.833048305775492 117.19111635196322 H 0.0 **** 0.06
31700 H 15.756697486555026 27.30668103233006 118.09973080829451 H 0.0 **** 0.06
31701 C 127.11848171802846 10.884794872652748 62.121047121224535 C 0.0 **** -0.24
31702 H 127.31874067363488 9.936658839879982 61.62306945986535 H 0.0 **** 0.06
31703 H 126.85446566775003 10.698913157893656 63.163516280537266 H 0.0 **** 0.06
31704 H 126.29178640720882 11.389143800620786 61.62117776401054 H 0.0 **** 0.06
31705 H 128.00767924252057 11.513815209623118 62.078426203184605 H 0.0 **** 0.06
31706 C 27.137137496622074 97.47343043284235 130.58246200727558 C 0.0 **** -0.24
31707 H 27.409488362126694 96.43119224206839 130.74846176702937 H 0.0 **** 0.06
31708 H 27.60504688812182 98.09741749979366 131.34479942492158 H 0.0 **** 0.06
31709 H 26.05371280220399 97.57947837569355 130.6402818644906 H 0.0 **** 0.06
31710 H 27.480301934035708 97.78563361381379 129.5963049726608 H 0.0 **** 0.06
31711 C 55.30088642207943 15.032527005930405 57.13007382575631 C 0.0 **** -0.24
31712 H 55.19696566837075 15.527631930121004 58.095210053066126 H 0.0 **** 0.06
31713 H 55.90767879231055 14.134990224017088 57.24630242553417 H 0.0 **** 0.06
31714 H 55.78207508614227 15.709464566431166 56.4244206794653 H 0.0 **** 0.06
31715 H 54.31411443708254 14.757519532533621 56.75499070136249 H 0.0 **** 0.06
31716 C 88.6304107634033 146.09881011961818 44.405620949603204 C 0.0 **** -0.24
31717 H 88.23535863676325 145.51497233820515 43.57461095518046 H 0.0 **** 0.06
31718 H 89.44466848351622 145.5500884362197 44.88034326474582 H 0.0 **** 0.06
31719 H 87.83864866869298 146.2762030805136 45.1341625828626 H 0.0 **** 0.06
31720 H 89.00304265330062 147.0535613610968 44.03471678193603 H 0.0 **** 0.06
31721 C 119.5723167116462 180.28488442109335 129.2546775755531 C 0.0 **** -0.24
31722 H 119.28224374429378 179.7984453006184 128.32267540236887 H 0.0 **** 0.06
31723 H 119.26861391918764 179.66374624657635 130.09809584507917 H 0.0 **** 0.06
31724 H 119.0843640641183 181.2570233515398 129.3240135213307 H 0.0 **** 0.06
31725 H 120.65419657758453 180.41842277552036 129.272756283496 H 0.0 **** 0.06
31726 C 36.3875311560863 161.007028863766 99.1981895314019 C 0.0 **** -0.24
31727 H 36.619345022707904 161.99722930108248 99.59082778189541 H 0.0 **** 0.06
31728 H 37.29206718915529 160.56012000932563 98.78628008615861 H 0.0 **** 0.06
31729 H 35.63492827429877 161.0944516469267 98.41476339236745 H 0.0 **** 0.06
31730 H 36.00404778790919 160.37834358677173 100.00223350350838 H 0.0 **** 0.06
31731 C 17.913771946019324 80.08019065192181 172.46047360925417 C 0.0 **** -0.24
31732 H 17.214257072357356 80.85550336394054 172.14562675863075 H 0.0 **** 0.06
31733 H 18.769745037423718 80.06914248451955 171.7852629878055 H 0.0 **** 0.06
31734 H 17.417566285944588 79.11061015994814 172.4342257833608 H 0.0 **** 0.06
31735 H 18.253428651875026 80.28898260115916 173.47456314595607 H 0.0 **** 0.06
31736 C 120.7144565410311 49.49364591043695 112.63399412519112 C 0.0 **** -0.24
31737 H 120.76481181940835 49.10796914019562 113.65272086106563 H 0.0 **** 0.06
31738 H 121.05410917013603 50.52946929981617 112.62125169463945 H 0.0 **** 0.06
31739 H 119.68504582164701 49.44412446302023 112.27764656240691 H 0.0 **** 0.06
31740 H 121.35224961623157 48.893791272434996 111.98603523062826 H 0.0 **** 0.06
31741 C 175.88250094776998 132.11393111031407 123.77701423753648 C 0.0 **** -0.24
31742 H 176.48806570277225 131.57467752348902 124.50570365658906 H 0.0 **** 0.06
31743 H 174.9763012388225 131.54587331566603 123.56751296149001 H 0.0 **** 0.06
31744 H 176.4521350332813 132.243889190167 122.85660874015191 H 0.0 **** 0.06
31745 H 175.61506833779887 133.09046654960764 124.1796017141293 H 0.0 **** 0.06
31746 C 172.37174655263541 115.56103653359712 156.14989788685008 C 0.0 **** -0.24
31747 H 171.7182925497893 114.71209754268646 156.34741189832096 H 0.0 **** 0.06
31748 H 171.77077671460637 116.4188782813036 155.84731374061136 H 0.0 **** 0.06
31749 H 173.06806036455757 115.3058603072757 155.3514897736053 H 0.0 **** 0.06
31750 H 172.92940595737898 115.80812409241913 157.05300977280933 H 0.0 **** 0.06
31751 C 46.278090593643185 71.31822975892122 42.61179398934169 C 0.0 **** -0.24
31752 H 45.92231316411585 71.83560441929322 41.72011620261297 H 0.0 **** 0.06
31753 H 45.50201973296275 70.6425624871591 42.972578054854594 H 0.0 **** 0.06
31754 H 46.51180294357128 72.04977474185327 43.38655258807981 H 0.0 **** 0.06
31755 H 47.17356391859968 70.74812077624051 42.36775588866092 H 0.0 **** 0.06
31756 C 23.438501937212408 15.517971422203118 172.78086499881175 C 0.0 **** -0.24
31757 H 22.51234692457578 15.146377038939335 172.34287657468326 H 0.0 **** 0.06
31758 H 23.32876263307371 16.576251433233267 173.01976056288805 H 0.0 **** 0.06
31759 H 24.254806528063853 15.38773956473824 172.07022666120662 H 0.0 **** 0.06
31760 H 23.65727116787363 14.960160172652508 173.69217231866833 H 0.0 **** 0.06
31761 C 132.69252723411296 113.33089179447181 53.89899766460968 C 0.0 **** -0.24
31762 H 133.54493157483313 113.64165514841774 53.293107910155555 H 0.0 **** 0.06
31763 H 131.87484781413417 114.03962016328985 53.76610733463468 H 0.0 **** 0.06
31764 H 132.98460315979588 113.30455168345053 54.94836184939436 H 0.0 **** 0.06
31765 H 132.36874970117844 112.33855759433497 53.58693312162154 H 0.0 **** 0.06
31766 C 77.91373376692513 50.68361155978451 12.14369445445891 C 0.0 **** -0.24
31767 H 77.99236429797975 50.13859197457023 11.203671995086324 H 0.0 **** 0.06
31768 H 78.67198372712983 51.46644943622928 12.173831387225846 H 0.0 **** 0.06
31769 H 78.06659844126762 49.996520091164655 12.97598831489671 H 0.0 **** 0.06
31770 H 76.92391223848267 51.13348996121812 12.220493720924878 H 0.0 **** 0.06
31771 C 94.94481988026375 21.261524868696938 63.841092636283776 C 0.0 **** -0.24
31772 H 95.73175138464687 21.703709307140514 63.22893977297386 H 0.0 **** 0.06
31773 H 94.07874047650417 21.043010986486195 63.2168158550615 H 0.0 **** 0.06
31774 H 94.65981922209518 21.960898707705667 64.62615963101337 H 0.0 **** 0.06
31775 H 95.31164363308208 20.33854771196073 64.2910991770686 H 0.0 **** 0.06
31776 C 92.8005106651605 125.57730715429243 70.94770155990662 C 0.0 **** -0.24
31777 H 92.90606768274112 125.799099427954 72.00969462397104 H 0.0 **** 0.06
31778 H 91.74463017571294 125.45831864508263 70.70447637138359 H 0.0 **** 0.06
31779 H 93.33422914131388 124.65533518701604 70.71511036306772 H 0.0 **** 0.06
31780 H 93.21918172551226 126.39562955574131 70.36253292149755 H 0.0 **** 0.06
31781 C 34.00414636792733 143.059434942893 154.2191703103215 C 0.0 **** -0.24
31782 H 33.41446046109304 142.57788550173944 154.99893887807883 H 0.0 **** 0.06
31783 H 34.04157837806373 142.41205705748956 153.34116224499755 H 0.0 **** 0.06
31784 H 35.0161763398728 143.2356470177128 154.58389624606113 H 0.0 **** 0.06
31785 H 33.54383178086765 144.01006491875017 153.94997058519095 H 0.0 **** 0.06
31786 C 85.21888540323073 40.138681800598704 25.25048771162244 C 0.0 **** -0.24
31787 H 84.90607645795275 40.901941689040996 24.5390074005619 H 0.0 **** 0.06
31788 H 85.26475168160344 40.571157317909325 26.25043050871247 H 0.0 **** 0.06
31789 H 86.20439045916875 39.764358687714235 24.971426100917142 H 0.0 **** 0.06
31790 H 84.50281570814937 39.31782966064921 25.24265939090992 H 0.0 **** 0.06
31791 C 165.65718607649416 163.37372073765505 117.53608120573587 C 0.0 **** -0.24
31792 H 166.12754985322067 162.57475007715175 118.10921833063198 H 0.0 **** 0.06
31793 H 165.00747371321836 162.94060591557775 116.77443509265625 H 0.0 **** 0.06
31794 H 166.4264528016072 163.97840949961954 117.05583588420082 H 0.0 **** 0.06
31795 H 165.06614140676695 164.00134970640806 118.20401269240487 H 0.0 **** 0.06
31796 C 54.76636019621509 154.94226281023683 50.81821110426296 C 0.0 **** -0.24
31797 H 53.824504624479275 154.77055579225757 51.33947509675369 H 0.0 **** 0.06
31798 H 55.558744427235055 155.1149334684003 51.545578552035806 H 0.0 **** 0.06
31799 H 54.66943340537013 155.81483260904858 50.17141319779813 H 0.0 **** 0.06
31800 H 55.011491679303916 154.06820883977218 50.21370832505147 H 0.0 **** 0.06
31801 C 64.90058329360055 69.27062050438974 154.34063916665286 C 0.0 **** -0.24
31802 H 64.60433354449519 70.02236983035647 155.07150466345576 H 0.0 **** 0.06
31803 H 64.75850248177038 69.66589661566704 153.33526302809972 H 0.0 **** 0.06
31804 H 64.28983474855609 68.37670345099929 154.47081175572265 H 0.0 **** 0.06
31805 H 65.95114952856501 69.01662103907319 154.48742561547053 H 0.0 **** 0.06
31806 C 73.19861595861805 137.4264589675313 11.688132809885758 C 0.0 **** -0.24
31807 H 72.40836170798887 138.17169822039784 11.591307879469639 H 0.0 **** 0.06
31808 H 73.07851476824446 136.8906286850637 12.630539842128144 H 0.0 **** 0.06
31809 H 74.16930672637694 137.92145503505844 11.671833253475256 H 0.0 **** 0.06
31810 H 73.13585067299118 136.72231876080332 10.858691165087123 H 0.0 **** 0.06
31811 C 35.71107361495899 83.53641048710412 175.70263037113764 C 0.0 **** -0.24
31812 H 35.9250182532582 84.41083458247782 176.3175422074096 H 0.0 **** 0.06
31813 H 36.34142509843491 83.55511184438284 174.81341181692295 H 0.0 **** 0.06
31814 H 34.66317648894301 83.54762598952631 175.4058675971228 H 0.0 **** 0.06
31815 H 35.916639959926215 82.63157220614727 176.27507472712003 H 0.0 **** 0.06
31816 C 148.86815172058954 26.304658804549717 26.942574893383807 C 0.0 **** -0.24
31817 H 148.81267776542325 26.909815565085836 26.038162776192664 H 0.0 **** 0.06
31818 H 148.02802498184127 26.545940125213576 27.59403230440651 H 0.0 **** 0.06
31819 H 149.80283706477513 26.513486875244666 27.461967308224672 H 0.0 **** 0.06
31820 H 148.82902445302364 25.248421750262878 26.675901479330847 H 0.0 **** 0.06
31821 C 92.80282710764686 126.77673450583302 51.562411746177546 C 0.0 **** -0.24
31822 H 92.0343030020598 127.13348181152867 50.87661992290991 H 0.0 **** 0.06
31823 H 92.97878017920448 125.71517325350993 51.389314719101776 H 0.0 **** 0.06
31824 H 92.46978475128032 126.92756427264112 52.58962718206777 H 0.0 **** 0.06
31825 H 93.72613779627324 127.33152538981426 51.393868501344 H 0.0 **** 0.06
31826 C 172.54728517435075 91.0367570554016 132.27059515367768 C 0.0 **** -0.24
31827 H 171.81662201448597 90.37788220660231 131.8007966241761 H 0.0 **** 0.06
31828 H 172.13963481643518 91.4225941610194 133.20540759322932 H 0.0 **** 0.06
31829 H 172.771126021893 91.86668933573027 131.6010975629614 H 0.0 **** 0.06
31830 H 173.46072601268182 90.47724118862276 132.4753321159999 H 0.0 **** 0.06
31831 C 76.4487412209971 162.88117767594642 75.13062433907919 C 0.0 **** -0.24
31832 H 76.00844812283862 163.53621045367385 75.88243841997507 H 0.0 **** 0.06
31833 H 77.26024452617432 163.40432471700944 74.62382758879869 H 0.0 **** 0.06
31834 H 75.686731771492 162.60075176788996 74.40237897510616 H 0.0 **** 0.06
31835 H 76.83837834775963 161.98520796839773 75.61264148254588 H 0.0 **** 0.06
31836 C 143.3225710327614 146.25239345493537 81.46635680398258 C 0.0 **** -0.24
31837 H 143.1858193681419 145.21769986714733 81.15401485374802 H 0.0 **** 0.06
31838 H 143.6996948834505 146.83822964880648 80.62737411734611 H 0.0 **** 0.06
31839 H 144.03825370002085 146.29169495670973 82.287962604704 H 0.0 **** 0.06
31840 H 142.36743120549556 146.6617496570989 81.7964261767654 H 0.0 **** 0.06
31841 C 159.88222662026092 142.81355245185026 120.75796577771314 C 0.0 **** -0.24
31842 H 159.10320725015293 143.52845058835493 121.02316729184457 H 0.0 **** 0.06
31843 H 160.15050466231574 142.22763280479165 121.63780579412474 H 0.0 **** 0.06
31844 H 160.75994044385706 143.34913280642525 120.3967795646094 H 0.0 **** 0.06
31845 H 159.51449071443326 142.14867584286827 119.97641618758996 H 0.0 **** 0.06
31846 C 22.772942488368017 178.52671283793856 8.130363521107505 C 0.0 **** -0.24
31847 H 21.77071392197479 178.8830464981211 7.8927112921888565 H 0.0 **** 0.06
31848 H 23.42410348896864 178.6723702009031 7.268613765876189 H 0.0 **** 0.06
31849 H 22.731501433882542 177.4653886928678 8.378985939092296 H 0.0 **** 0.06
31850 H 23.164302511812494 179.0838839443734 8.981062077216151 H 0.0 **** 0.06
31851 C 14.267096683272094 11.183012616029316 177.73361517786572 C 0.0 **** -0.24
31852 H 15.053805344972275 10.516390933947626 177.38147833249275 H 0.0 **** 0.06
31853 H 13.295495845927185 10.787860917331535 177.43452597994525 H 0.0 **** 0.06
31854 H 14.405975012225333 12.172523917287315 177.29779002472475 H 0.0 **** 0.06
31855 H 14.310848635765154 11.254973490878427 178.81977572359983 H 0.0 **** 0.06
31856 C 75.83636543160503 46.85362359356395 121.95527681813792 C 0.0 **** -0.24
31857 H 74.87439902414513 47.18593075824822 121.56323348236583 H 0.0 **** 0.06
31858 H 75.83330302387553 46.936080908302756 123.04163852063476 H 0.0 **** 0.06
31859 H 76.63051047616048 47.476194890158695 121.54442895545981 H 0.0 **** 0.06
31860 H 76.00501721292505 45.8142986238754 121.67005656301677 H 0.0 **** 0.06
31861 C 60.219333853075 47.61934674573803 9.774765218362944 C 0.0 **** -0.24
31862 H 59.137045383921816 47.68384471890624 9.6644110886524 H 0.0 **** 0.06
31863 H 60.655412727032925 47.22923953112624 8.855266478176503 H 0.0 **** 0.06
31864 H 60.461920158515525 46.95357447160339 10.603229783287873 H 0.0 **** 0.06
31865 H 60.62429007041527 48.611823635226955 9.976000114755493 H 0.0 **** 0.06
31866 C 169.5987696068056 143.44981544247133 117.20787595104736 C 0.0 **** -0.24
31867 H 169.89681057562922 142.9736940670117 118.14201961291167 H 0.0 **** 0.06
31868 H 169.39753356627676 144.50576493362564 117.38720269472424 H 0.0 **** 0.06
31869 H 168.69873667744798 142.9676947728467 116.82677394340823 H 0.0 **** 0.06
31870 H 170.40119569388685 143.3512003190646 116.47738722848766 H 0.0 **** 0.06
31871 C 6.8666782511269275 134.64413525628487 139.4765250861904 C 0.0 **** -0.24
31872 H 7.087656296663226 133.74473849379257 138.9009344732812 H 0.0 **** 0.06
31873 H 5.894639359786538 134.53650976385376 139.9588740626279 H 0.0 **** 0.06
31874 H 6.848804134521231 135.50626258872 138.8103927251666 H 0.0 **** 0.06
31875 H 7.636046953574919 134.78687726450664 140.23631974187907 H 0.0 **** 0.06
31876 C 98.38796382468604 15.809329795404658 3.385445298016009 C 0.0 **** -0.24
31877 H 98.28034762114856 15.229543144264532 2.4688458490546736 H 0.0 **** 0.06
31878 H 97.48357982963483 15.708217624907554 3.986721707316093 H 0.0 **** 0.06
31879 H 98.5444287620752 16.85804064370226 3.1358063466989847 H 0.0 **** 0.06
31880 H 99.24331688416612 15.43852388457276 3.9503466051003784 H 0.0 **** 0.06
31881 C 0.24713808238270474 16.916799225223073 152.00355230428875 C 0.0 **** -0.24
31882 H 0.04030890936638798 17.401747744278033 152.9582983567363 H 0.0 **** 0.06
31883 H -0.5787610544935831 16.252611126088148 151.7484637835435 H 0.0 **** 0.06
31884 H 1.1686952673190234 16.34032524795372 152.0809438976791 H 0.0 **** 0.06
31885 H 0.35647380301787734 17.67568096941625 151.22839904397307 H 0.0 **** 0.06
31886 C 181.29214684682051 162.51681273313366 84.66466797684797 C 0.0 **** -0.24
31887 H 181.7645013245079 161.62104368599256 85.06792772655916 H 0.0 **** 0.06
31888 H 181.76066080258556 163.40070378807167 85.09796885356712 H 0.0 **** 0.06
31889 H 180.23133663951748 162.50923145386776 84.91219485520014 H 0.0 **** 0.06
31890 H 181.41315454807074 162.53492568515526 83.58201272424242 H 0.0 **** 0.06
31891 C 91.18380872202472 38.65547804830514 169.23530190202717 C 0.0 **** -0.24
31892 H 90.60070918195383 38.303533254212724 170.08713121922725 H 0.0 **** 0.06
31893 H 91.56687738553093 37.800071281141655 168.6789620581852 H 0.0 **** 0.06
31894 H 92.01757555015529 39.260764716697935 169.59181319480308 H 0.0 **** 0.06
31895 H 90.54928241568591 39.25763371005942 168.5853909262934 H 0.0 **** 0.06
31896 C 127.66358117713416 112.24201445395762 170.1408660588313 C 0.0 **** -0.24
31897 H 127.79397080160153 111.16602088619472 170.0288761865349 H 0.0 **** 0.06
31898 H 126.78821026435752 112.4393394792135 170.76040458536613 H 0.0 **** 0.06
31899 H 127.52435746099333 112.69541086535084 169.16005273018018 H 0.0 **** 0.06
31900 H 128.54835379644618 112.66791402388468 170.61526395137554 H 0.0 **** 0.06
31901 C 105.70634413742674 155.46442734777355 98.94102372917088 C 0.0 **** -0.24
31902 H 105.23835309307485 155.8108401900007 98.02028171547884 H 0.0 **** 0.06
31903 H 104.96825266164039 155.45670776649206 99.74302668633955 H 0.0 **** 0.06
31904 H 106.52425560845008 156.13382449774397 99.20744940965933 H 0.0 **** 0.06
31905 H 106.09551656771679 154.45642501641814 98.79433185500473 H 0.0 **** 0.06
31906 C 111.19742906299398 143.50534064557542 64.83435203978823 C 0.0 **** -0.24
31907 H 110.63982153111492 142.98716771385682 65.6138223659035 H 0.0 **** 0.06
31908 H 110.62624076345459 143.48603993376616 63.90571659236056 H 0.0 **** 0.06
31909 H 112.15571679925749 143.0076020996852 64.68144569349727 H 0.0 **** 0.06
31910 H 111.36816235655316 144.53830041621177 65.13548753538399 H 0.0 **** 0.06
31911 C 146.8655432461194 79.59819925967702 43.36023364079739 C 0.0 **** -0.24
31912 H 146.33468069953852 78.67619354337279 43.12262306539344 H 0.0 **** 0.06
31913 H 147.08009021414497 79.6279828342428 44.42871382869009 H 0.0 **** 0.06
31914 H 146.24792842376556 80.45335551108815 43.08840824885266 H 0.0 **** 0.06
31915 H 147.80091236567264 79.63274202600121 42.80043831682349 H 0.0 **** 0.06
31916 C 81.00929798596886 61.81262499583272 168.62501345420856 C 0.0 **** -0.24
31917 H 81.2660051769095 60.753887102558394 168.56947158392757 H 0.0 **** 0.06
31918 H 80.46265950736392 62.10042647421119 167.72658145132738 H 0.0 **** 0.06
31919 H 81.9215591369203 62.40300202476362 168.7007622488284 H 0.0 **** 0.06
31920 H 80.38701955903517 61.9901155749464 169.50198153208427 H 0.0 **** 0.06
31921 C 107.74920362070735 130.18121224818185 92.58330306300739 C 0.0 **** -0.24
31922 H 107.93665521546545 129.55296256127872 91.71166344105369 H 0.0 **** 0.06
31923 H 108.59773566659861 130.84800678882266 92.73812161150157 H 0.0 **** 0.06
31924 H 107.61566193402005 129.5511822053798 93.46306959031794 H 0.0 **** 0.06
31925 H 106.84776535969517 130.77099488465058 92.4181005895379 H 0.0 **** 0.06
31926 C 33.31539608267897 26.234005658995613 61.22914657550557 C 0.0 **** -0.24
31927 H 33.03541066330206 27.237022899145018 60.905766046452726 H 0.0 **** 0.06
31928 H 32.70284377510467 25.49992882611474 60.70545941416694 H 0.0 **** 0.06
31929 H 33.153766272077405 26.141492228260176 62.303346019126266 H 0.0 **** 0.06
31930 H 34.367203317748675 26.059081322318207 61.003097073674155 H 0.0 **** 0.06
31931 C 2.996680250189712 15.394561955198938 3.6402250381415513 C 0.0 **** -0.24
31932 H 2.375793439609396 15.811824200790085 4.433820767849937 H 0.0 **** 0.06
31933 H 3.431327851330593 14.452967188735457 3.9777308227112655 H 0.0 **** 0.06
31934 H 3.793057467454844 16.096615068044322 3.3959811346749973 H 0.0 **** 0.06
31935 H 2.3840929304270446 15.216284205352494 2.756140655079406 H 0.0 **** 0.06
31936 C 3.488048978920716 134.42330467357175 23.55126924847724 C 0.0 **** -0.24
31937 H 3.1862893788036786 133.3849006764588 23.41408817405113 H 0.0 **** 0.06
31938 H 2.85589838974235 134.88738365687658 24.309761665882803 H 0.0 **** 0.06
31939 H 3.3787125240719718 134.96081447556037 22.609271839350612 H 0.0 **** 0.06
31940 H 4.528144219272747 134.4604729779952 23.872927040725983 H 0.0 **** 0.06
31941 C 45.09507692372544 167.79211137737892 67.96456715679852 C 0.0 **** -0.24
31942 H 45.299498907269125 168.83023408282475 67.70131959039611 H 0.0 **** 0.06
31943 H 44.03555230642276 167.67902051698303 68.19530601071438 H 0.0 **** 0.06
31944 H 45.68929950334976 167.51503643230316 68.83556909371549 H 0.0 **** 0.06
31945 H 45.35644027960191 167.14786331900865 67.12618004264937 H 0.0 **** 0.06
31946 C 79.31940906921227 61.223196282279844 26.68817285429725 C 0.0 **** -0.24
31947 H 78.90369615761807 62.22583551853228 26.58969598987204 H 0.0 **** 0.06
31948 H 80.3937650426056 61.256164217674126 26.506801070685015 H 0.0 **** 0.06
31949 H 78.84805870874698 60.562088200332994 25.961385891777496 H 0.0 **** 0.06
31950 H 79.13161315544386 60.84955155878731 27.694938312240623 H 0.0 **** 0.06
31951 C 154.44245251809883 31.976085608901457 19.29096490255472 C 0.0 **** -0.24
31952 H 154.9420978813869 32.01100397597625 18.322797259757778 H 0.0 **** 0.06
31953 H 154.27430363144066 30.937651113951517 19.57666600226898 H 0.0 **** 0.06
31954 H 153.48551110901136 32.49475127865921 19.224118411060232 H 0.0 **** 0.06
31955 H 155.0681210294174 32.462746893019016 20.03945877869191 H 0.0 **** 0.06
31956 C 110.39102670450471 85.52837513472274 113.29421079025995 C 0.0 **** -0.24
31957 H 110.15261575279406 84.5328872868914 112.91831246399981 H 0.0 **** 0.06
31958 H 109.95646945314088 85.65671091005864 114.28575367703134 H 0.0 **** 0.06
31959 H 109.98329138069361 86.27939556316672 112.61735660164653 H 0.0 **** 0.06
31960 H 111.4736329381604 85.64340179955592 113.35434390725489 H 0.0 **** 0.06
31961 C 143.3637069428235 0.3172949174974633 63.11754366020665 C 0.0 **** -0.24
31962 H 142.56042827748973 -0.10597739844064336 63.720528977824 H 0.0 **** 0.06
31963 H 143.85505455132522 1.1143441756178447 63.675658678326315 H 0.0 **** 0.06
31964 H 142.94984657361562 0.7209325023035262 62.193217056646674 H 0.0 **** 0.06
31965 H 144.08881384061158 -0.46082592484449947 62.88058947191645 H 0.0 **** 0.06
31966 C 82.61321865739956 161.13403047068343 108.3117641154542 C 0.0 **** -0.24
31967 H 81.92453400249872 161.8218905911672 108.80350723165424 H 0.0 **** 0.06
31968 H 82.05340751027944 160.30244927749249 107.88413512437393 H 0.0 **** 0.06
31969 H 83.32879571935496 160.75439427074872 109.0415512102079 H 0.0 **** 0.06
31970 H 83.14632963472673 161.65944394500343 107.52003897047132 H 0.0 **** 0.06
31971 C 63.221352958870554 67.87118849018931 58.75085595797363 C 0.0 **** -0.24
31972 H 63.58266574449847 67.65244465375586 59.75622534005002 H 0.0 **** 0.06
31973 H 62.19170194427073 67.52757627510526 58.65214023296613 H 0.0 **** 0.06
31974 H 63.84786158675354 67.35982866805377 58.020972816067015 H 0.0 **** 0.06
31975 H 63.26315591251253 68.94664925407491 58.57652570313046 H 0.0 **** 0.06
31976 C 12.741129236908847 28.69211017075571 12.68317953243809 C 0.0 **** -0.24
31977 H 13.620142836012121 29.316553411583897 12.521519054037327 H 0.0 **** 0.06
31978 H 12.216898858024024 28.550833410178655 11.738092897986604 H 0.0 **** 0.06
31979 H 12.077453909122141 29.178603162079497 13.397914440668245 H 0.0 **** 0.06
31980 H 13.051775005620584 27.723606372097663 13.075959341305747 H 0.0 **** 0.06
31981 C 142.04169340509236 127.44167281139879 176.0883843042892 C 0.0 **** -0.24
31982 H 142.58447995847303 126.68778820932953 176.6579254428654 H 0.0 **** 0.06
31983 H 141.94693475980273 128.34913181824646 176.68512488828168 H 0.0 **** 0.06
31984 H 141.04952343239745 127.06460259663739 175.8395547010172 H 0.0 **** 0.06
31985 H 142.58583546969624 127.66516862138174 175.17093218499267 H 0.0 **** 0.06
31986 C 45.567409250352796 127.70890191293745 91.87690919357051 C 0.0 **** -0.24
31987 H 45.31382977212979 127.07383153064234 92.72544523247508 H 0.0 **** 0.06
31988 H 46.631662328027346 127.94755697596321 91.90827114308878 H 0.0 **** 0.06
31989 H 44.986734548732386 128.6294369998439 91.92648117440466 H 0.0 **** 0.06
31990 H 45.339818099549916 127.18391257557226 90.94954798570377 H 0.0 **** 0.06
31991 C 176.4387332948388 8.498654423610084 17.29873216775932 C 0.0 **** -0.24
31992 H 176.11334825433414 9.415394107471336 16.806153939559422 H 0.0 **** 0.06
31993 H 177.32379739896385 8.109425868446444 16.793857859615024 H 0.0 **** 0.06
31994 H 175.63966113220448 7.758669079268927 17.25255061968668 H 0.0 **** 0.06
31995 H 176.67838112546002 8.711889935086738 18.34083145101384 H 0.0 **** 0.06
31996 C 173.46110767336427 6.909060536392303 60.737367494394675 C 0.0 **** -0.24
31997 H 173.27885525100385 7.443921928957536 59.80589195538511 H 0.0 **** 0.06
31998 H 172.51768244724678 6.524840663553704 61.12603356052972 H 0.0 **** 0.06
31999 H 173.90339202674133 7.589382655054266 61.46563718814781 H 0.0 **** 0.06
32000 H 174.14379885177505 6.080199743528624 60.553928484857465 H 0.0 **** 0.06
32001 C 150.24031281691197 26.797500719869987 144.3960985316872 C 0.0 **** -0.24
32002 H 150.7818863504047 27.631675932940823 144.84099195677868 H 0.0 **** 0.06
32003 H 149.7775637399059 27.120578361583114 143.46367186526362 H 0.0 **** 0.06
32004 H 149.46810019252968 26.45655120533928 145.0865038344608 H 0.0 **** 0.06
32005 H 150.93293589805143 25.980224338498942 144.19443804252342 H 0.0 **** 0.06
32006 C 180.56595159644195 49.86879019811377 15.449235444254803 C 0.0 **** -0.24
32007 H 181.26795218304346 49.06771710101026 15.221146877451254 H 0.0 **** 0.06
32008 H 180.6575422684818 50.14307893034788 16.500349716035622 H 0.0 **** 0.06
32009 H 179.54975836310672 49.52984916600735 15.248971515984032 H 0.0 **** 0.06
32010 H 180.79029874783907 50.73548162495081 14.826619418848885 H 0.0 **** 0.06
32011 C 28.100535950924723 140.92480235715578 147.09108498554843 C 0.0 **** -0.24
32012 H 29.05271139894427 140.83133179326921 146.57072502855988 H 0.0 **** 0.06
32013 H 28.114573927090902 140.30565077981583 147.98846541819563 H 0.0 **** 0.06
32014 H 27.294080906475017 140.5952750778651 146.4347166148048 H 0.0 **** 0.06
32015 H 27.940230762644205 141.96532584104523 147.37019328797209 H 0.0 **** 0.06
32016 C 1.3005289574234666 176.15688074308326 59.821354015682246 C 0.0 **** -0.24
32017 H 1.5862444181260003 175.82793870086812 60.82110108467444 H 0.0 **** 0.06
32018 H 0.9822321984328823 175.29659873506642 59.23253366680525 H 0.0 **** 0.06
32019 H 2.1534571861024574 176.6329015119698 59.3384875680119 H 0.0 **** 0.06
32020 H 0.47973471054501715 176.87123214059915 59.895159717726784 H 0.0 **** 0.06
32021 C 9.58983782271308 38.39276829763193 60.423179765271385 C 0.0 **** -0.24
32022 H 10.089237970915555 39.308351539928935 60.73959432631233 H 0.0 **** 0.06
32023 H 8.582048260762988 38.62800737686217 60.0805865024756 H 0.0 **** 0.06
32024 H 9.535811449950565 37.700041270523684 61.26318618641082 H 0.0 **** 0.06
32025 H 10.15240834896695 37.93389225019811 59.609957442497716 H 0.0 **** 0.06
32026 C 160.5138238096 92.27982783003388 1.4887119473075359 C 0.0 **** -0.24
32027 H 161.05068647753828 93.12496144902737 1.057651615597905 H 0.0 **** 0.06
32028 H 161.03707267096877 91.93605032077168 2.381859782525936 H 0.0 **** 0.06
32029 H 160.46585227828982 91.47045681989421 0.7605006779763528 H 0.0 **** 0.06
32030 H 159.50380116457947 92.58987585452003 1.75545494272626 H 0.0 **** 0.06
32031 C 117.89860250214402 83.34870121083355 16.431005318903544 C 0.0 **** -0.24
32032 H 117.73596716245238 83.3569588873409 15.353716641361075 H 0.0 **** 0.06
32033 H 118.96666116921959 83.2757346984842 16.636980911637067 H 0.0 **** 0.06
32034 H 117.3843830682885 82.4929118297714 16.869395891464478 H 0.0 **** 0.06
32035 H 117.507006504064 84.26803794551196 16.865151468027932 H 0.0 **** 0.06
32036 C 124.97332320374748 123.31574303654456 171.06546458010706 C 0.0 **** -0.24
32037 H 124.86991575908728 122.55297565665866 171.83518603010796 H 0.0 **** 0.06
32038 H 125.41559989381629 122.87381237855878 170.17197982144359 H 0.0 **** 0.06
32039 H 125.61706481839023 124.11591456723544 171.43141079260135 H 0.0 **** 0.06
32040 H 123.99184004092886 123.72289272415581 170.82236110807324 H 0.0 **** 0.06
32041 C 154.99642579797228 49.77407861846518 170.84429411449187 C 0.0 **** -0.24
32042 H 155.12116121194325 49.79007336994948 171.927456443605 H 0.0 **** 0.06
32043 H 154.54917581577365 50.71366530343124 170.51729760134697 H 0.0 **** 0.06
32044 H 154.34498159247167 48.94567868244735 170.56625031901518 H 0.0 **** 0.06
32045 H 155.96834238194648 49.64856181590966 170.36842121350983 H 0.0 **** 0.06
32046 C 170.78757176825093 148.97896474129104 93.4337841466439 C 0.0 **** -0.24
32047 H 169.82645345326 148.55696371449764 93.72758183620438 H 0.0 **** 0.06
32048 H 170.78327671817263 149.18122227383367 92.36290796499678 H 0.0 **** 0.06
32049 H 171.581777282629 148.26987785224856 93.66755486923942 H 0.0 **** 0.06
32050 H 170.95861102477988 149.90741937207537 93.97950656607865 H 0.0 **** 0.06
32051 C 118.59646379831754 2.8793193256405303 1.9177156878912456 C 0.0 **** -0.24
32052 H 118.72406183156683 3.952090815244503 1.7804626979614113 H 0.0 **** 0.06
32053 H 117.75394164573287 2.533157573970101 1.3188301954363624 H 0.0 **** 0.06
32054 H 118.40696296787381 2.6667147482312785 2.9701790407731323 H 0.0 **** 0.06
32055 H 119.50336129388741 2.362525715209138 1.6010570353741969 H 0.0 **** 0.06
32056 C 36.60525850412466 30.004472167680518 108.42781708782523 C 0.0 **** -0.24
32057 H 35.70605924780534 29.44376833295871 108.17542209078444 H 0.0 **** 0.06
32058 H 37.32878058323007 29.33868906278086 108.89976947505436 H 0.0 **** 0.06
32059 H 36.34992891237337 30.80976235229538 109.11681120150426 H 0.0 **** 0.06
32060 H 37.03780511597972 30.427390831509044 107.52089779460714 H 0.0 **** 0.06
32061 C 81.11692460863691 169.88155479720007 158.02307309363465 C 0.0 **** -0.24
32062 H 80.52799887027214 169.49060758939663 157.19425159176882 H 0.0 **** 0.06
32063 H 81.23789038483272 169.10667687599434 158.77976711394604 H 0.0 **** 0.06
32064 H 80.60559130917886 170.73961610008982 158.45942091506902 H 0.0 **** 0.06
32065 H 82.09726412760938 170.19022617977328 157.65856685817914 H 0.0 **** 0.06
32066 C 52.55576140969504 14.657488677567471 3.8539240596394393 C 0.0 **** -0.24
32067 H 52.69112040964387 14.003486240085266 2.992686515201335 H 0.0 **** 0.06
32068 H 51.62854077467199 15.220074373649709 3.739899413371809 H 0.0 **** 0.06
32069 H 53.395521356705615 15.349632563519435 3.9193950206814208 H 0.0 **** 0.06
32070 H 52.50794919978239 14.057549503208122 4.762544076749478 H 0.0 **** 0.06
32071 C 50.39460813760127 11.17654893117782 123.0496268941438 C 0.0 **** -0.24
32072 H 49.42333908875622 11.09968834355169 122.56161948513271 H 0.0 **** 0.06
32073 H 50.42332287104813 12.077873333014509 123.661666225031 H 0.0 **** 0.06
32074 H 51.177894557235106 11.22611651828413 122.29286813694843 H 0.0 **** 0.06
32075 H 50.55460706288733 10.302346091691675 123.68115529122004 H 0.0 **** 0.06
32076 C 37.85927775912714 89.10305986858924 38.361521510218694 C 0.0 **** -0.24
32077 H 38.413266810626425 89.82206714894227 37.757726815577556 H 0.0 **** 0.06
32078 H 36.8048107856001 89.37745008034352 38.375369212913256 H 0.0 **** 0.06
32079 H 38.2497988979261 89.10582621418808 39.37871368885176 H 0.0 **** 0.06
32080 H 37.9699131401095 88.1067118663874 37.932403975437325 H 0.0 **** 0.06
32081 C 154.34210685676192 37.08596825183503 70.2542518888169 C 0.0 **** -0.24
32082 H 154.03979183046448 36.039157178312266 70.23300210044825 H 0.0 **** 0.06
32083 H 155.21114215573965 37.226044334714885 69.61091160647308 H 0.0 **** 0.06
32084 H 154.59574808829672 37.36995696030172 71.27570668887503 H 0.0 **** 0.06
32085 H 153.52152232866263 37.70774130390616 69.89744291092656 H 0.0 **** 0.06
32086 C 59.57097876367823 180.19240408939297 173.64845732799867 C 0.0 **** -0.24
32087 H 59.570764532351916 180.02348567606094 172.57146016192908 H 0.0 **** 0.06
32088 H 60.55609103726499 179.95940313804056 174.05187239084407 H 0.0 **** 0.06
32089 H 58.824222265566874 179.54988505168927 174.11566006564195 H 0.0 **** 0.06
32090 H 59.3315969913925 181.23593965888938 173.85246036770562 H 0.0 **** 0.06
32091 C 7.821871810060543 182.71411481750846 57.603150616552824 C 0.0 **** -0.24
32092 H 8.696962581767934 183.3573371711327 57.51054117789974 H 0.0 **** 0.06
32093 H 8.129480973913132 181.6708670618616 57.53383194468665 H 0.0 **** 0.06
32094 H 7.118505146127632 182.93964750542236 56.80152370315835 H 0.0 **** 0.06
32095 H 7.343393898094973 182.88911289872163 58.566819608247044 H 0.0 **** 0.06
32096 C 160.35767401164367 122.68001112421432 0.7497007842529086 C 0.0 **** -0.24
32097 H 160.7313466345162 122.21049869183612 1.6593469769158773 H 0.0 **** 0.06
32098 H 160.00289194005103 121.91054607747544 0.06423117904743236 H 0.0 **** 0.06
32099 H 161.16067310853867 123.24671106861327 0.27790210080141975 H 0.0 **** 0.06
32100 H 159.53702947552742 123.35231880706611 0.9985265667494616 H 0.0 **** 0.06
32101 C 178.8779790963954 51.70950777306962 30.938674213330046 C 0.0 **** -0.24
32102 H 179.8585885676847 51.874165967478106 30.49057696767477 H 0.0 **** 0.06
32103 H 178.484410958058 50.74807339855272 30.606855801874616 H 0.0 **** 0.06
32104 H 178.20017815183672 52.505478781276054 30.630863577206412 H 0.0 **** 0.06
32105 H 178.96999728870955 51.71089327439083 32.02464570858646 H 0.0 **** 0.06
32106 C 108.24711532360978 10.693791186948602 81.9239466043506 C 0.0 **** -0.24
32107 H 107.84308410416422 9.774229611599424 82.346931991107 H 0.0 **** 0.06
32108 H 109.26880965035774 10.520545016050448 81.58704630422935 H 0.0 **** 0.06
32109 H 108.24156153789131 11.47549727437763 82.68362819177 H 0.0 **** 0.06
32110 H 107.63359927799054 11.004778788223518 81.07808955443815 H 0.0 **** 0.06
32111 C 23.84265531850707 151.66719074647608 14.8709056909926 C 0.0 **** -0.24
32112 H 24.439223065530086 150.7941261531739 14.606186018398716 H 0.0 **** 0.06
32113 H 24.328180278847128 152.20555023963283 15.684202626575967 H 0.0 **** 0.06
32114 H 22.8511230337798 151.34614988405056 15.187935377060626 H 0.0 **** 0.06
32115 H 23.752972602863224 152.32112363566443 14.003075542038374 H 0.0 **** 0.06
32116 C 97.93967804755785 101.15948545755947 178.38199330855218 C 0.0 **** -0.24
32117 H 98.82377484370234 101.72150787667465 178.68475896861162 H 0.0 **** 0.06
32118 H 97.78453915236837 101.27790898200738 177.3090491418223 H 0.0 **** 0.06
32119 H 97.06914096039289 101.53560999310929 178.9189196203513 H 0.0 **** 0.06
32120 H 98.08299704743216 100.10463654968038 178.61534240125678 H 0.0 **** 0.06
32121 C 90.46949877058462 113.2860463367587 56.264238285608116 C 0.0 **** -0.24
32122 H 90.47583302907101 112.83058924278377 55.273151954223465 H 0.0 **** 0.06
32123 H 91.05190493054825 112.67000834631433 56.94958902054907 H 0.0 **** 0.06
32124 H 89.44315402771694 113.35916755237308 56.62389523239966 H 0.0 **** 0.06
32125 H 90.90671483506561 114.2825785354499 56.208749244696435 H 0.0 **** 0.06
32126 C 79.84979328906103 147.78554960384793 90.77581500359797 C 0.0 **** -0.24
32127 H 79.5325660109809 147.13011120754174 91.58669459849328 H 0.0 **** 0.06
32128 H 78.99567395382294 148.01410630466341 90.1388068835942 H 0.0 **** 0.06
32129 H 80.62010780704321 147.28731209846168 90.18648460778444 H 0.0 **** 0.06
32130 H 80.25118074637903 148.7097385279879 91.19118266790905 H 0.0 **** 0.06
32131 C 8.19280632813853 146.75807545023292 143.58248249139504 C 0.0 **** -0.24
32132 H 9.199837676477344 147.1609814213174 143.47767319529555 H 0.0 **** 0.06
32133 H 8.0172964656253 146.0115836350979 142.8079887107962 H 0.0 **** 0.06
32134 H 7.466452293006348 147.56561262244435 143.48154717218878 H 0.0 **** 0.06
32135 H 8.087496303875469 146.29584958405064 144.5644536890852 H 0.0 **** 0.06
32136 C 133.26215313001347 2.54073571395395 158.35476651954457 C 0.0 **** -0.24
32137 H 133.90568783668317 3.4198037002382264 158.33858329596433 H 0.0 **** 0.06
32138 H 132.77710279091377 2.4276938074731547 157.38435006248818 H 0.0 **** 0.06
32139 H 132.50398228055224 2.6607267542005175 159.12857946475157 H 0.0 **** 0.06
32140 H 133.86132747630808 1.655544187115332 158.5673163210277 H 0.0 **** 0.06
32141 C 68.14678293383064 146.05592977068258 102.99942328558075 C 0.0 **** -0.24
32142 H 68.04225293398044 145.39166669779254 103.8560173309437 H 0.0 **** 0.06
32143 H 67.81462382791516 147.0579933910233 103.27369729373714 H 0.0 **** 0.06
32144 H 67.53792348286724 145.6842695500968 102.17475957676925 H 0.0 **** 0.06
32145 H 69.19182121128414 146.09115926012703 102.69152679965123 H 0.0 **** 0.06
32146 C 142.31620201377535 131.9008584224581 12.631764040262198 C 0.0 **** -0.24
32147 H 142.1020567934097 130.85934712525983 12.869449506413112 H 0.0 **** 0.06
32148 H 141.63376305271254 132.54735327776058 13.185562637045948 H 0.0 **** 0.06
32149 H 142.18387023806514 132.06408203357108 11.56236013661529 H 0.0 **** 0.06
32150 H 143.34435870773257 132.1336783047712 12.910853820597197 H 0.0 **** 0.06
32151 C 91.8295073981112 31.367289775132576 40.994514191650126 C 0.0 **** -0.24
32152 H 91.94326816918398 32.34053348865547 41.47224479662674 H 0.0 **** 0.06
32153 H 91.3478480654672 31.492217830431855 40.024998530000204 H 0.0 **** 0.06
32154 H 91.21605293020501 30.722982527913757 41.625225836313234 H 0.0 **** 0.06
32155 H 92.8113466024089 30.913915338380775 40.85883163244387 H 0.0 **** 0.06
32156 C 36.71226657062941 154.39996999271997 164.88514491386076 C 0.0 **** -0.24
32157 H 36.060362277169276 153.79661190525755 164.25345023080246 H 0.0 **** 0.06
32158 H 37.3024159113792 153.7456858159996 165.52725343186947 H 0.0 **** 0.06
32159 H 36.10742044532485 155.06546202949124 165.5011586142987 H 0.0 **** 0.06
32160 H 37.379022243407874 154.99182612147794 164.25734273092792 H 0.0 **** 0.06
32161 C 75.89957870378137 20.623790026197426 182.42204575931498 C 0.0 **** -0.24
32162 H 74.93738172596689 20.137696117199795 182.58634754122522 H 0.0 **** 0.06
32163 H 75.81344764963872 21.329783775358422 181.5960804876793 H 0.0 **** 0.06
32164 H 76.64975001870478 19.871236061255267 182.18011833319912 H 0.0 **** 0.06
32165 H 76.1968050244544 21.155403318176916 183.32541066823978 H 0.0 **** 0.06
32166 C 19.496695553984864 165.34591110051005 144.61868858206196 C 0.0 **** -0.24
32167 H 19.181994464114325 164.3992005528119 145.0594558250574 H 0.0 **** 0.06
32168 H 19.421581527808485 166.13609736383142 145.36546693336223 H 0.0 **** 0.06
32169 H 18.85374258298748 165.58319143735991 143.77167922103536 H 0.0 **** 0.06
32170 H 20.528992049793032 165.26275544063853 144.27989007963393 H 0.0 **** 0.06
32171 C 20.88197456246226 49.0332342284448 99.9113129009108 C 0.0 **** -0.24
32172 H 21.396087089921437 49.76165672182306 99.28517528406375 H 0.0 **** 0.06
32173 H 21.127759699714822 49.21579807468288 100.95812210384382 H 0.0 **** 0.06
32174 H 21.19759823795131 48.02806847675561 99.63438902189871 H 0.0 **** 0.06
32175 H 19.805371161406086 49.128586283489156 99.7691317749365 H 0.0 **** 0.06
32176 C 22.63801750848279 140.70092338623874 64.22311948145895 C 0.0 **** -0.24
32177 H 21.749619927741207 140.19564065992103 63.846087077091454 H 0.0 **** 0.06
32178 H 22.8748080984939 140.32492509831792 65.21876343550716 H 0.0 **** 0.06
32179 H 22.45194001839411 141.77425369293638 64.27476843097861 H 0.0 **** 0.06
32180 H 23.475701989301797 140.5088740937794 63.5528589822585 H 0.0 **** 0.06
32181 C 89.39707422457928 28.87102517422275 25.704402055932434 C 0.0 **** -0.24
32182 H 90.48426249948614 28.81097421201423 25.665725515057076 H 0.0 **** 0.06
32183 H 89.0875533958544 29.913871830025812 25.63506899592224 H 0.0 **** 0.06
32184 H 89.0431307484721 28.44874363430131 26.645075585346078 H 0.0 **** 0.06
32185 H 88.97230374792855 28.309439299871997 24.87260778993688 H 0.0 **** 0.06
32186 C 177.05054306118134 110.41217787189375 96.14854951382252 C 0.0 **** -0.24
32187 H 177.65258472988899 109.98812563732038 96.95150086204386 H 0.0 **** 0.06
32188 H 176.0026967880217 110.15484982024229 96.30487877575327 H 0.0 **** 0.06
32189 H 177.3848512269044 110.00911064657267 95.19182057554185 H 0.0 **** 0.06
32190 H 177.16245059628645 111.49638340267997 96.14381322100992 H 0.0 **** 0.06
32191 C 9.128400370769043 51.03279625714265 165.64518555483818 C 0.0 **** -0.24
32192 H 8.123793469306044 51.165376445868674 166.04565753610495 H 0.0 **** 0.06
32193 H 9.63625246378939 51.99707845273173 165.60934583877264 H 0.0 **** 0.06
32194 H 9.06573839337078 50.61741481514724 164.63920240062586 H 0.0 **** 0.06
32195 H 9.687901266093832 50.35041847274363 166.2854461919017 H 0.0 **** 0.06
32196 C 64.4686620828924 93.03647645338538 40.43294612651616 C 0.0 **** -0.24
32197 H 63.71141442037842 93.7982707795955 40.24805767001348 H 0.0 **** 0.06
32198 H 65.40676505778771 93.33601052730307 39.962840206639555 H 0.0 **** 0.06
32199 H 64.13800917965915 92.08679091360858 40.01277308077303 H 0.0 **** 0.06
32200 H 64.61869870753452 92.92683508251417 41.50672176884257 H 0.0 **** 0.06
32201 C 32.43247906364088 141.44049915504036 87.94211777454382 C 0.0 **** -0.24
32202 H 33.51605472542181 141.46268253776242 88.0587284473894 H 0.0 **** 0.06
32203 H 32.04468200790366 140.49745944627819 88.32801274395302 H 0.0 **** 0.06
32204 H 32.178997587491594 141.5341286010875 86.88561549870889 H 0.0 **** 0.06
32205 H 31.99112144205111 142.2697348225688 88.49640114904611 H 0.0 **** 0.06
32206 C 0.12865852272082634 136.37166654659387 6.809438151557558 C 0.0 **** -0.24
32207 H -0.6401035766338907 136.58832977029215 6.067810049631966 H 0.0 **** 0.06
32208 H 0.02308564821754544 137.05450339115714 7.652875518709152 H 0.0 **** 0.06
32209 H 1.1139618384896721 136.49890035036623 6.359407781656451 H 0.0 **** 0.06
32210 H 0.017690180810063794 135.34493267456003 7.15765925623252 H 0.0 **** 0.06
32211 C 162.04307979274986 65.68907035605454 46.830703218774275 C 0.0 **** -0.24
32212 H 162.01185343404586 65.63633074352435 47.91882995907845 H 0.0 **** 0.06
32213 H 161.48105776226024 66.5604477175867 46.493674866224794 H 0.0 **** 0.06
32214 H 161.59958838128045 64.78596558060727 46.411322130437625 H 0.0 **** 0.06
32215 H 163.07826284307674 65.77247050239953 46.50054747099861 H 0.0 **** 0.06
32216 C 40.01356866749855 1.8727577061744114 103.74214586473096 C 0.0 **** -0.24
32217 H 39.60715691100283 1.082904710934372 103.11184193066043 H 0.0 **** 0.06
32218 H 39.525720657936944 1.8462187082190553 104.71704195642144 H 0.0 **** 0.06
32219 H 39.83510512190843 2.840223007404518 103.27239803141782 H 0.0 **** 0.06
32220 H 41.08561021259811 1.7224159838394826 103.86730033497162 H 0.0 **** 0.06
32221 C 134.0480534060539 69.01195948778998 118.42737173147054 C 0.0 **** -0.24
32222 H 134.5296107509355 68.6072158087265 117.53722599037695 H 0.0 **** 0.06
32223 H 134.08937621859332 68.27474082078942 119.23016464642245 H 0.0 **** 0.06
32224 H 133.00745286934387 69.24604085507029 118.2024343999039 H 0.0 **** 0.06
32225 H 134.56515937374837 69.91856675313176 118.73967609801218 H 0.0 **** 0.06
32226 C 54.46158502328605 125.19930578648439 156.84938050641327 C 0.0 **** -0.24
32227 H 55.11315266655126 125.90379217854604 156.33207508272076 H 0.0 **** 0.06
32228 H 54.727941547883745 124.1811542853527 156.56347822270274 H 0.0 **** 0.06
32229 H 53.425159969828655 125.39503688921661 156.5739448271745 H 0.0 **** 0.06
32230 H 54.580701140399725 125.31786262624246 157.925966299246 H 0.0 **** 0.06
32231 C 174.47183420051033 160.82593074322565 83.29711234562517 C 0.0 **** -0.24
32232 H 175.54459107896656 160.71743619858947 83.45617513582934 H 0.0 **** 0.06
32233 H 174.09419140989928 161.6439656916917 83.91033832564138 H 0.0 **** 0.06
32234 H 173.96853083945575 159.9001157917861 83.57462225496192 H 0.0 **** 0.06
32235 H 174.28119088261695 161.0425721132063 82.2451916985599 H 0.0 **** 0.06
32236 C 0.2333475317989695 68.33273243967223 99.79143006023617 C 0.0 **** -0.24
32237 H 0.31878083577885263 69.32154216708437 99.33891168587161 H 0.0 **** 0.06
32238 H -0.07547861910772014 68.43641616740213 100.83189652821164 H 0.0 **** 0.06
32239 H 1.1974521941300935 67.82791650208965 99.74633693817128 H 0.0 **** 0.06
32240 H -0.5097957434646148 67.7478898790207 99.2483484429477 H 0.0 **** 0.06
32241 C 136.91197542182857 132.642524146067 133.1436998755911 C 0.0 **** -0.24
32242 H 136.46598697143622 131.89135687091004 132.4927833224623 H 0.0 **** 0.06
32243 H 136.54507951552466 133.62984691010115 132.86321009580348 H 0.0 **** 0.06
32244 H 137.99724375690283 132.61501533308228 133.03941515778712 H 0.0 **** 0.06
32245 H 136.64091223715388 132.43379638868777 134.17789125013144 H 0.0 **** 0.06
32246 C 78.94358537119672 157.72713343812242 35.81309323908596 C 0.0 **** -0.24
32247 H 78.4602812527819 158.475679627442 35.18640427416864 H 0.0 **** 0.06
32248 H 78.34563569941372 156.81494420897232 35.81615943026469 H 0.0 **** 0.06
32249 H 79.03167096805731 158.1072536229031 36.83047857253885 H 0.0 **** 0.06
32250 H 79.9362150545993 157.5098900613529 35.41968127966334 H 0.0 **** 0.06
32251 C 28.127432890781506 168.96921291031194 75.74200142278517 C 0.0 **** -0.24
32252 H 28.343446533723238 169.59960628411238 74.8789877021244 H 0.0 **** 0.06
32253 H 28.72171779464604 169.30198066043937 76.59224515791854 H 0.0 **** 0.06
32254 H 28.375371395919842 167.9345696745398 75.50610902509597 H 0.0 **** 0.06
32255 H 27.067929430893074 169.04224737063805 75.9870600794212 H 0.0 **** 0.06
32256 C 146.58420793575692 104.89920092417844 180.10801729804353 C 0.0 **** -0.24
32257 H 147.1017228178053 105.85402640690762 180.0139427846497 H 0.0 **** 0.06
32258 H 147.28227894488424 104.14189563764347 180.46451684585313 H 0.0 **** 0.06
32259 H 146.19009526410898 104.60252289593325 179.13660508626012 H 0.0 **** 0.06
32260 H 145.76346207611232 105.0002862504054 180.8178738644933 H 0.0 **** 0.06
32261 C 89.72278172510543 47.97976268013065 165.09881317188538 C 0.0 **** -0.24
32262 H 90.54046225682269 48.08516162175192 165.81111925031934 H 0.0 **** 0.06
32263 H 89.42542214698541 48.9656377544967 164.73962935545794 H 0.0 **** 0.06
32264 H 88.87520989496402 47.49964162677989 165.58756579027076 H 0.0 **** 0.06
32265 H 90.05115649336956 47.36991232181296 164.25713869991617 H 0.0 **** 0.06
32266 C 157.60135562883386 35.65920904666659 72.78254198963276 C 0.0 **** -0.24
32267 H 156.68981538938323 36.15753174372112 73.11395603356873 H 0.0 **** 0.06
32268 H 157.35530623901838 34.927300801256806 72.01272486866172 H 0.0 **** 0.06
32269 H 158.06744975860317 35.155391555139346 73.62889861847349 H 0.0 **** 0.06
32270 H 158.29106416493744 36.39828137225825 72.37473125008852 H 0.0 **** 0.06
32271 C 184.58259798106212 181.80464299178269 136.83396619801385 C 0.0 **** -0.24
32272 H 185.05154258365363 181.5115080966891 135.8946274633273 H 0.0 **** 0.06
32273 H 184.53263079684464 182.89285865507912 136.8906879662543 H 0.0 **** 0.06
32274 H 185.17144542336968 181.4230569176736 137.66774081192455 H 0.0 **** 0.06
32275 H 183.57528211553387 181.39143762239993 136.88065046372952 H 0.0 **** 0.06
32276 C 181.1005158952321 2.345482294642494 140.46791254643472 C 0.0 **** -0.24
32277 H 181.8713605088456 1.8086530903973994 141.02134489505488 H 0.0 **** 0.06
32278 H 181.12172906523915 3.399308696402265 140.74421719870793 H 0.0 **** 0.06
32279 H 180.12308648965308 1.9268793850236747 140.70890163018151 H 0.0 **** 0.06
32280 H 181.2850069827821 2.245150408537242 139.39787238883855 H 0.0 **** 0.06
32281 C 77.9124962392975 117.72735988742488 89.58718113549624 C 0.0 **** -0.24
32282 H 77.74779064087286 116.71403354390299 89.95377240197261 H 0.0 **** 0.06
32283 H 78.70122954732898 118.20087535545338 90.17231979295049 H 0.0 **** 0.06
32284 H 76.99197035617793 118.30347515031013 89.6849445422417 H 0.0 **** 0.06
32285 H 78.20851730672297 117.69148351632543 88.53894844801498 H 0.0 **** 0.06
32286 C 152.599337352759 167.57758757370252 175.8045887135605 C 0.0 **** -0.24
32287 H 152.26755193278007 168.61212138967932 175.88119507856263 H 0.0 **** 0.06
32288 H 151.86868291588848 166.92569155510213 176.28478666281688 H 0.0 **** 0.06
32289 H 153.5643186175173 167.46753470589158 176.29968253900358 H 0.0 **** 0.06
32290 H 152.69689841909326 167.30281326979696 174.75473907610768 H 0.0 **** 0.06
32291 C 49.94829306971219 36.40153000311166 163.92773021757847 C 0.0 **** -0.24
32292 H 50.90862386738526 36.91172545479688 163.85882663941095 H 0.0 **** 0.06
32293 H 50.100728252020204 35.3919739696196 164.31103495901215 H 0.0 **** 0.06
32294 H 49.491866917211865 36.35044677878007 162.93978841434028 H 0.0 **** 0.06
32295 H 49.29271203027652 36.95182578526223 164.60359518065445 H 0.0 **** 0.06
32296 C 15.647737342314514 164.15367318794347 145.37838522771375 C 0.0 **** -0.24
32297 H 16.38014896756397 164.17158718392423 144.57062122068191 H 0.0 **** 0.06
32298 H 16.159040871308036 163.9953500995018 146.3276169434692 H 0.0 **** 0.06
32299 H 14.939497614831055 163.3423417739765 145.20773584995737 H 0.0 **** 0.06
32300 H 15.114041782537498 165.10325404868132 145.405525255104 H 0.0 **** 0.06
32301 C 76.37703685679737 160.69553705340186 169.52944871848894 C 0.0 **** -0.24
32302 H 75.32471861624828 160.64559646392803 169.8076331903822 H 0.0 **** 0.06
32303 H 76.75789954627308 159.68719515098257 169.36418345283857 H 0.0 **** 0.06
32304 H 76.9425552494389 161.17139315783345 170.3302341229413 H 0.0 **** 0.06
32305 H 76.48288214813547 161.2787513601168 168.61420436176502 H 0.0 **** 0.06
32306 C 175.84027429018357 1.3492445606106784 151.09113199562898 C 0.0 **** -0.24
32307 H 175.521349441525 0.3099535402303246 151.01506973638578 H 0.0 **** 0.06
32308 H 176.2146783882003 1.6856525339176045 150.1245319753059 H 0.0 **** 0.06
32309 H 176.6312462380036 1.4315228985149417 151.83703415594323 H 0.0 **** 0.06
32310 H 174.99415022462028 1.9675660718686174 151.38952924344198 H 0.0 **** 0.06
32311 C 175.60549601727024 114.39877647200801 100.39778821814927 C 0.0 **** -0.24
32312 H 174.98989766090926 114.14600927615287 99.53500101923139 H 0.0 **** 0.06
32313 H 175.11268183196384 115.17727506973789 100.98033219056383 H 0.0 **** 0.06
32314 H 176.57668801075812 114.75806808212427 100.05981784220874 H 0.0 **** 0.06
32315 H 175.74222432434095 113.51231453201557 101.01792206359549 H 0.0 **** 0.06
32316 C 65.31495520273035 165.4261735057258 69.68933474740646 C 0.0 **** -0.24
32317 H 66.19343741629388 165.31771922153146 70.32504696223651 H 0.0 **** 0.06
32318 H 64.67467942687597 166.2141261512134 70.08645932878 H 0.0 **** 0.06
32319 H 64.76388962175372 164.4861884951232 69.66832859941024 H 0.0 **** 0.06
32320 H 65.62799448189207 165.68659857170042 68.6784858238384 H 0.0 **** 0.06
32321 C 122.00905814697681 90.03614283721026 182.19540321510698 C 0.0 **** -0.24
32322 H 122.01995236663554 90.59315083193633 181.25839212683542 H 0.0 **** 0.06
32323 H 123.02227445463207 89.97600426818434 182.59344899581166 H 0.0 **** 0.06
32324 H 121.62874336766542 89.03039451056571 182.01596425092032 H 0.0 **** 0.06
32325 H 121.36580126120587 90.54512327984628 182.9129712204587 H 0.0 **** 0.06
32326 C 110.74254448438916 113.87982334504153 81.12790370398409 C 0.0 **** -0.24
32327 H 110.61466616388134 114.48460873735712 80.22947164913792 H 0.0 **** 0.06
32328 H 111.49233173009515 114.33970415636793 81.7712605846146 H 0.0 **** 0.06
32329 H 111.06795774229636 112.87831776382643 80.8475269375252 H 0.0 **** 0.06
32330 H 109.7942073587526 113.81717365351989 81.66142977736205 H 0.0 **** 0.06
32331 C 120.61130849363666 93.31178467682975 56.40333402394069 C 0.0 **** -0.24
32332 H 121.34783322821433 94.11160490526106 56.31916568356726 H 0.0 **** 0.06
32333 H 120.17880100860715 93.32036532020373 57.403737446192565 H 0.0 **** 0.06
32334 H 121.09578273351941 92.35177084391324 56.224508633917054 H 0.0 **** 0.06
32335 H 119.82410992953207 93.46443148334333 55.665414840250776 H 0.0 **** 0.06
32336 C 51.18256290557059 97.41663684456574 62.66412269892862 C 0.0 **** -0.24
32337 H 51.12725608428522 98.42538018377275 62.25381377149557 H 0.0 **** 0.06
32338 H 51.116197089804615 96.69160681332431 61.85223205134915 H 0.0 **** 0.06
32339 H 50.35832893538685 97.26205997224213 63.35868994281759 H 0.0 **** 0.06
32340 H 52.12943240039425 97.28966428703939 63.18885833797273 H 0.0 **** 0.06
32341 C 85.6100670130753 154.8862968395561 140.58554861210865 C 0.0 **** -0.24
32342 H 85.17135597610529 155.70904482312653 141.15163764018342 H 0.0 **** 0.06
32343 H 84.83001457434176 154.38533328375968 140.01123502095527 H 0.0 **** 0.06
32344 H 86.06642430042298 154.17585723874583 141.27440487321053 H 0.0 **** 0.06
32345 H 86.36806281602337 155.27586320712896 139.90786969951688 H 0.0 **** 0.06
32346 C 163.5456161312649 29.795282221930165 154.84142019723592 C 0.0 **** -0.24
32347 H 163.84914036669224 30.837587402761358 154.93221270149857 H 0.0 **** 0.06
32348 H 162.496831463701 29.696288375211168 155.12265021135178 H 0.0 **** 0.06
32349 H 164.15914642128524 29.180547432594977 155.50076085927563 H 0.0 **** 0.06
32350 H 163.67841409178754 29.466191280295448 153.81082851481096 H 0.0 **** 0.06
32351 C 161.8333998966786 27.36544978490801 125.8376130112044 C 0.0 **** -0.24
32352 H 162.5709910389329 27.70889363751573 126.56214869813321 H 0.0 **** 0.06
32353 H 161.0035535362481 28.07100648170153 125.80304253610082 H 0.0 **** 0.06
32354 H 161.46405184536798 26.383236572876683 126.13277329093974 H 0.0 **** 0.06
32355 H 162.29592662534307 27.298646935685383 124.85210410440608 H 0.0 **** 0.06
32356 C 114.54716583641003 74.17676772398612 180.30952427590958 C 0.0 **** -0.24
32357 H 115.39583297675732 74.30700036756414 179.63675986778844 H 0.0 **** 0.06
32358 H 113.7589947784253 73.62521477811475 179.79731036873784 H 0.0 **** 0.06
32359 H 114.1703141968802 75.15450482162028 180.61126654338653 H 0.0 **** 0.06
32360 H 114.86566494693271 73.62149107604434 181.19243568360181 H 0.0 **** 0.06
32361 C 145.34708147912704 137.40063455843267 63.74534145105517 C 0.0 **** -0.24
32362 H 144.58584548330748 136.6674157394092 63.47781332329288 H 0.0 **** 0.06
32363 H 144.87072215363446 138.3582283153396 63.95478439023799 H 0.0 **** 0.06
32364 H 146.04672765884243 137.51544323504413 62.918520122020084 H 0.0 **** 0.06
32365 H 145.88378247395406 137.06017521741632 64.63115060389183 H 0.0 **** 0.06
32366 C 145.87147174035306 15.407219611463113 167.77542722789272 C 0.0 **** -0.24
32367 H 144.79555408369055 15.526647948634448 167.90157564647373 H 0.0 **** 0.06
32368 H 146.38694945725013 15.817254898752964 168.64388802090454 H 0.0 **** 0.06
32369 H 146.19288863535115 15.935823425223518 166.87782622592835 H 0.0 **** 0.06
32370 H 146.11038451227995 14.347742314752821 167.67843274314993 H 0.0 **** 0.06
32371 C 92.23622657645707 5.342258586538662 67.55694905312042 C 0.0 **** -0.24
32372 H 91.67513574875828 5.073031433991275 68.45174969207292 H 0.0 **** 0.06
32373 H 92.99993495567837 6.075909249314293 67.81481059906837 H 0.0 **** 0.06
32374 H 91.55838719455404 5.7674694378599725 66.81746149878167 H 0.0 **** 0.06
32375 H 92.71203840557861 4.451805591132768 67.14518219180097 H 0.0 **** 0.06
32376 C 142.96876109990302 179.76516883474676 51.81337822982567 C 0.0 **** -0.24
32377 H 143.4389923113259 179.96049464563401 50.84948362715332 H 0.0 **** 0.06
32378 H 141.99654861141772 179.29940711643354 51.6560434525544 H 0.0 **** 0.06
32379 H 142.83929536678605 180.7054476913553 52.34968753344748 H 0.0 **** 0.06
32380 H 143.60259674250338 179.09816032118584 52.397787663539646 H 0.0 **** 0.06
32381 C 96.01273282767617 44.39564260338935 51.46983433381837 C 0.0 **** -0.24
32382 H 96.61269137551598 45.273845252318694 51.710311430818365 H 0.0 **** 0.06
32383 H 95.48337427587647 44.56436176059918 50.5313782801901 H 0.0 **** 0.06
32384 H 95.29046189377475 44.220272723274235 52.267782008995994 H 0.0 **** 0.06
32385 H 96.66336818602944 43.52759867669806 51.37065419739855 H 0.0 **** 0.06
32386 C 38.20788915996093 110.12730415566021 50.90312821469729 C 0.0 **** -0.24
32387 H 37.34949737072742 110.38806357735906 50.28368295131568 H 0.0 **** 0.06
32388 H 38.29910610563911 109.04198593050394 50.9582209645549 H 0.0 **** 0.06
32389 H 38.067601358836555 110.53178984061334 51.90584654122219 H 0.0 **** 0.06
32390 H 39.11308281784497 110.54655247584704 50.46517659361737 H 0.0 **** 0.06
32391 C 119.80890180206141 97.72825914240497 184.40718985519723 C 0.0 **** -0.24
32392 H 119.7140108798091 96.68543062067619 184.7090635680873 H 0.0 **** 0.06
32393 H 118.81777583906363 98.17783770016433 184.33693431546666 H 0.0 **** 0.06
32394 H 120.30154374423783 97.7826497294775 183.43661016572221 H 0.0 **** 0.06
32395 H 120.40186816966089 98.26795771894018 185.1465103071119 H 0.0 **** 0.06
32396 C 36.52043440388658 184.723510641495 161.16226008515036 C 0.0 **** -0.24
32397 H 35.43518443567805 184.81334895548707 161.20929141286837 H 0.0 **** 0.06
32398 H 36.941636819232144 184.88683320473223 162.1545668144874 H 0.0 **** 0.06
32399 H 36.917023635113935 185.4686543703096 160.47212880369892 H 0.0 **** 0.06
32400 H 36.78826297139395 183.72606510065006 160.81340679178635 H 0.0 **** 0.06
32401 C 184.61887068008946 28.83562751502825 106.81964509692096 C 0.0 **** -0.24
32402 H 185.0276447117474 28.376039264256903 107.7196238735591 H 0.0 **** 0.06
32403 H 184.42340477098872 28.063298753188803 106.07509909525277 H 0.0 **** 0.06
32404 H 185.3352135519108 29.5529944876443 106.4196215077585 H 0.0 **** 0.06
32405 H 183.68884393457475 29.349384688216006 107.06375612155017 H 0.0 **** 0.06
32406 C 106.06684808607643 127.88958780732095 75.53738859056907 C 0.0 **** -0.24
32407 H 105.95698125213296 127.012290366378 76.17550994451432 H 0.0 **** 0.06
32408 H 106.06466412167508 128.78912639993496 76.15247874599021 H 0.0 **** 0.06
32409 H 105.2389210042207 127.92975713447133 74.82990394523692 H 0.0 **** 0.06
32410 H 107.00784084369913 127.8247826291833 74.99055013455784 H 0.0 **** 0.06
32411 C 30.465728397283698 140.21653444197557 104.60135831405853 C 0.0 **** -0.24
32412 H 29.923504602083312 139.75643641562255 105.42791112221488 H 0.0 **** 0.06
32413 H 29.856863519991748 141.00669330781113 104.16233338998802 H 0.0 **** 0.06
32414 H 30.683685186571893 139.4624502179446 103.84559766079377 H 0.0 **** 0.06
32415 H 31.398955527905542 140.640606607812 104.97182461673623 H 0.0 **** 0.06
32416 C 25.108628671112797 171.14389009844683 14.554047501291159 C 0.0 **** -0.24
32417 H 25.363997677756657 172.19059509182063 14.392221474063767 H 0.0 **** 0.06
32418 H 25.306158200989344 170.57702898605928 13.643992042326353 H 0.0 **** 0.06
32419 H 24.05215927193268 171.06232547252438 14.810305168835527 H 0.0 **** 0.06
32420 H 25.711549482939787 170.74505573189447 15.370190270673689 H 0.0 **** 0.06
32421 C 81.29496441495536 94.17723504664751 60.60588139391395 C 0.0 **** -0.24
32422 H 82.01350271279321 94.14157638022566 59.78707156544135 H 0.0 **** 0.06
32423 H 80.42262143096193 94.75414793771053 60.29907755820713 H 0.0 **** 0.06
32424 H 81.75676228590487 94.64937817661264 61.473240583629135 H 0.0 **** 0.06
32425 H 80.98856329641846 93.16364677400567 60.86348092602837 H 0.0 **** 0.06
32426 C 88.9007999933691 29.62716365363717 166.7863665580328 C 0.0 **** -0.24
32427 H 88.15124772247282 30.28837012459664 166.34933016748494 H 0.0 **** 0.06
32428 H 89.88836049336516 29.906205409311696 166.4184218188767 H 0.0 **** 0.06
32429 H 88.68442351206204 28.596459614428156 166.5051979819699 H 0.0 **** 0.06
32430 H 88.87711280276028 29.72001308104555 167.8723017643598 H 0.0 **** 0.06
32431 C 140.18594314356346 176.20791283643973 19.462535839747233 C 0.0 **** -0.24
32432 H 139.6216939000745 176.29097918546506 20.391644093083897 H 0.0 **** 0.06
32433 H 140.17417924606679 177.1667059807677 18.944566081198502 H 0.0 **** 0.06
32434 H 139.7312675116459 175.446543843913 18.82878297858764 H 0.0 **** 0.06
32435 H 141.2154680791586 175.92683807619176 19.686967964965334 H 0.0 **** 0.06
32436 C 90.2870198318163 20.711914372971236 157.65258263110735 C 0.0 **** -0.24
32437 H 89.21698061355146 20.797089423820793 157.46211306510057 H 0.0 **** 0.06
32438 H 90.55224119503775 19.66097743494057 157.77250164927608 H 0.0 **** 0.06
32439 H 90.53859188488967 21.257303670187895 158.5623520456482 H 0.0 **** 0.06
32440 H 90.83946663529797 21.13220844166159 156.8121995113156 H 0.0 **** 0.06
32441 C 53.651496632561006 7.424985977239558 22.281889128850494 C 0.0 **** -0.24
32442 H 54.58167726730282 7.941698104018748 22.048004757783403 H 0.0 **** 0.06
32443 H 52.96723835375468 7.5104266224789455 21.437635096282833 H 0.0 **** 0.06
32444 H 53.19813885362825 7.877467832079546 23.164513221038433 H 0.0 **** 0.06
32445 H 53.8595044899897 6.3733266630974725 22.4783090230991 H 0.0 **** 0.06
32446 C 84.00537283377702 39.45047277410504 77.27807028268455 C 0.0 **** -0.24
32447 H 84.9031824070459 40.01820385161693 77.03368583748954 H 0.0 **** 0.06
32448 H 83.42358458885599 39.99530268564189 78.02264949852508 H 0.0 **** 0.06
32449 H 84.28936979631686 38.477233266203314 77.6784175686438 H 0.0 **** 0.06
32450 H 83.40648406974435 39.313059511186225 76.37781631608885 H 0.0 **** 0.06
32451 C 31.131434888822668 172.96718212461127 58.57001639032475 C 0.0 **** -0.24
32452 H 30.773555711864276 173.99141237789556 58.459547949186444 H 0.0 **** 0.06
32453 H 32.13534188448375 172.8876823953836 58.1519722296009 H 0.0 **** 0.06
32454 H 30.46185482992456 172.28958171050942 58.03975362479541 H 0.0 **** 0.06
32455 H 31.155260083233287 172.70240090467559 59.6266921246948 H 0.0 **** 0.06
32456 C 160.33860941374863 102.63324585667647 82.00882407732871 C 0.0 **** -0.24
32457 H 159.69328264421236 101.7629688830138 82.13172539302928 H 0.0 **** 0.06
32458 H 160.91094958754707 102.53315375534385 81.08688772025602 H 0.0 **** 0.06
32459 H 161.0212902305328 102.700873783661 82.85571056483212 H 0.0 **** 0.06
32460 H 159.728251592596 103.53448328186789 81.9615190071907 H 0.0 **** 0.06
32461 C 169.62773207535787 127.52243218514701 120.16990134619192 C 0.0 **** -0.24
32462 H 169.7775470370979 127.41178300977077 121.24308658590519 H 0.0 **** 0.06
32463 H 169.63283312996396 126.53899312136298 119.6990117939734 H 0.0 **** 0.06
32464 H 170.43002059749165 128.1298110506744 119.75167845230828 H 0.0 **** 0.06
32465 H 168.66959157606442 128.00867145217882 119.98487827547996 H 0.0 **** 0.06
32466 C 161.2140094377284 160.8746567405845 174.5602749800506 C 0.0 **** -0.24
32467 H 160.91400791793646 161.84544750561886 174.95382767350492 H 0.0 **** 0.06
32468 H 160.84428338947055 160.76670711879206 173.5396247263216 H 0.0 **** 0.06
32469 H 160.79523132403284 160.08539662125082 175.18354754157778 H 0.0 **** 0.06
32470 H 162.30150791120883 160.80258970081968 174.56245878051197 H 0.0 **** 0.06
32471 C 65.73278038987706 102.34309463159707 132.40170505060797 C 0.0 **** -0.24
32472 H 65.5704211024342 101.3177499451989 132.73497388405661 H 0.0 **** 0.06
32473 H 64.92487792939373 102.9756760048553 132.76841715161225 H 0.0 **** 0.06
32474 H 65.75095464515219 102.37094206715085 131.31225492432407 H 0.0 **** 0.06
32475 H 66.68475979939497 102.70438016986691 132.79027463113795 H 0.0 **** 0.06
32476 C 117.13798744275157 108.54842357546596 72.33601649511732 C 0.0 **** -0.24
32477 H 116.49466347336134 107.6683182272509 72.35808978990876 H 0.0 **** 0.06
32478 H 118.07966648066581 108.3221229947518 72.83873118953936 H 0.0 **** 0.06
32479 H 116.64227892919062 109.37309611784144 72.84703078270554 H 0.0 **** 0.06
32480 H 117.33556880534267 108.82804069058926 71.30089947184224 H 0.0 **** 0.06
32481 C 132.15671588195482 28.847989703871804 117.93768045045205 C 0.0 **** -0.24
32482 H 133.1701375254093 28.78873747904275 118.33404404387728 H 0.0 **** 0.06
32483 H 131.89248072555216 27.89755448047086 117.47275996152017 H 0.0 **** 0.06
32484 H 132.10389577869586 29.643667912548665 117.19478168177845 H 0.0 **** 0.06
32485 H 131.46125761105878 29.061951212982663 118.74955214045657 H 0.0 **** 0.06
32486 C 153.372070148688 134.15029409461584 169.2805999891442 C 0.0 **** -0.24
32487 H 154.20704445816014 134.0490605466686 168.5879001885196 H 0.0 **** 0.06
32488 H 153.44957011744899 133.3896233242731 170.05697623782908 H 0.0 **** 0.06
32489 H 152.4339697929875 134.02585918257796 168.73965725710514 H 0.0 **** 0.06
32490 H 153.3987227891687 135.14022244878095 169.7376119023898 H 0.0 **** 0.06
32491 C 88.59943978236696 160.51554495756875 180.18868151601532 C 0.0 **** -0.24
32492 H 88.51166510550935 159.49521898817645 179.8163807403009 H 0.0 **** 0.06
32493 H 87.64146707271574 161.02596516789686 180.07966358317762 H 0.0 **** 0.06
32494 H 89.3609502524261 161.04687194065656 179.61739540912265 H 0.0 **** 0.06
32495 H 88.88303450233376 160.4957189280806 181.241078937593 H 0.0 **** 0.06
32496 C 68.01309359547639 78.41264187683034 149.98266543122426 C 0.0 **** -0.24
32497 H 67.4664268277399 79.07220948325325 150.65739012039225 H 0.0 **** 0.06
32498 H 68.84957679391579 78.9566703316334 149.54255147588245 H 0.0 **** 0.06
32499 H 67.34654576343681 78.06923214981154 149.19183858647028 H 0.0 **** 0.06
32500 H 68.38918890174551 77.5553214685901 150.53949966338018 H 0.0 **** 0.06
32501 C 15.712478418389992 133.89592879204412 126.9920361054617 C 0.0 **** -0.24
32502 H 15.578211339122731 133.84428650300384 128.071931821799 H 0.0 **** 0.06
32503 H 16.476267373416988 133.18007731340526 126.6858507169764 H 0.0 **** 0.06
32504 H 16.02441146132034 134.90230818984134 126.71187782928894 H 0.0 **** 0.06
32505 H 14.771337930561941 133.65706171788656 126.49710534484296 H 0.0 **** 0.06
32506 C 98.85136962072467 172.30762658793998 84.34409827279973 C 0.0 **** -0.24
32507 H 98.89819785274541 172.06914507382066 85.40682121686405 H 0.0 **** 0.06
32508 H 99.15559916268215 173.34377811371408 84.191213348161 H 0.0 **** 0.06
32509 H 97.83145881959511 172.171728950501 83.9862098541729 H 0.0 **** 0.06
32510 H 99.52130831825671 171.64624747214248 83.79406355873778 H 0.0 **** 0.06
32511 C 96.3695748531062 57.99915278576512 28.608540079265893 C 0.0 **** -0.24
32512 H 95.8573712623479 57.83452295151669 29.556678186507355 H 0.0 **** 0.06
32513 H 95.7865365714319 57.558009535995325 27.800052997898092 H 0.0 **** 0.06
32514 H 97.3550718977113 57.53406292893415 28.642604393283733 H 0.0 **** 0.06
32515 H 96.47871647687066 59.06998803352376 28.436103577668092 H 0.0 **** 0.06
32516 C 181.68926389838973 10.907638044112545 103.16008463328093 C 0.0 **** -0.24
32517 H 181.9705596488451 10.271532559693817 102.32048598448647 H 0.0 **** 0.06
32518 H 181.20952777626937 11.811458809044488 102.7852718441038 H 0.0 **** 0.06
32519 H 182.58027851330726 11.175838567341486 103.72748025409221 H 0.0 **** 0.06
32520 H 180.99581163993486 10.36879358288786 103.80629279840916 H 0.0 **** 0.06
32521 C 120.36755484046772 5.8775055196862525 131.308142972101 C 0.0 **** -0.24
32522 H 120.96725519293575 6.423777017281985 132.0355041456611 H 0.0 **** 0.06
32523 H 120.2620298424438 6.4737421139604265 130.40183189969548 H 0.0 **** 0.06
32524 H 119.38154156473554 5.677923457658643 131.72797530657056 H 0.0 **** 0.06
32525 H 120.85783687425636 4.9334371215478185 131.06838939977257 H 0.0 **** 0.06
32526 C 129.85581256195053 8.196878022109843 151.65970439154805 C 0.0 **** -0.24
32527 H 130.63568368792858 7.437006259912721 151.701204703989 H 0.0 **** 0.06
32528 H 128.88517204815372 7.71584756653337 151.538675225778 H 0.0 **** 0.06
32529 H 130.04077185018173 8.860319823082506 150.81444619457915 H 0.0 **** 0.06
32530 H 129.8628474973662 8.775662849621597 152.58317014057917 H 0.0 **** 0.06
32531 C 141.7043777576792 166.17884761891165 173.3234489219734 C 0.0 **** -0.24
32532 H 141.66956832769603 167.1740755922202 172.88051784107952 H 0.0 **** 0.06
32533 H 141.45040033174143 166.24373492258792 174.3821153011718 H 0.0 **** 0.06
32534 H 142.7085528229573 165.76797889477234 173.214702816895 H 0.0 **** 0.06
32535 H 140.98959359269855 165.53035196609622 172.8167267573057 H 0.0 **** 0.06
32536 C 63.14958852450209 8.19622700176572 59.022500453967766 C 0.0 **** -0.24
32537 H 62.91265228284041 9.192931467726254 59.3953875689685 H 0.0 **** 0.06
32538 H 62.22481062485025 7.662290685880663 58.80011283953657 H 0.0 **** 0.06
32539 H 63.71112291900148 7.649536443121917 59.78007020002329 H 0.0 **** 0.06
32540 H 63.747461184037206 8.280387823218888 58.115219024499 H 0.0 **** 0.06
32541 C 83.62422382009375 92.50195185289182 164.2182983615605 C 0.0 **** -0.24
32542 H 82.9122946033641 92.59905344364309 163.39915282251854 H 0.0 **** 0.06
32543 H 84.62842097978353 92.37630639958105 163.81397962944925 H 0.0 **** 0.06
32544 H 83.36491364840572 91.63523963993926 164.82494776385363 H 0.0 **** 0.06
32545 H 83.59100678652996 93.40069022995583 164.8360113842281 H 0.0 **** 0.06
32546 C 63.84447901183347 167.5929479003034 173.11849704144493 C 0.0 **** -0.24
32547 H 63.58498179446801 167.45111130109808 172.06925400807037 H 0.0 **** 0.06
32548 H 63.05358079381659 168.15477887177886 173.61528706579665 H 0.0 **** 0.06
32549 H 64.78241069102802 168.1429355825701 173.19035147438717 H 0.0 **** 0.06
32550 H 63.95650471051849 166.61996944512148 173.59774285713885 H 0.0 **** 0.06
32551 C 122.87786761426742 80.75096748606114 55.43154057908521 C 0.0 **** -0.24
32552 H 122.9501369358793 81.45583395717486 56.260358284270325 H 0.0 **** 0.06
32553 H 123.8229350292122 80.73173847298753 54.887900796397076 H 0.0 **** 0.06
32554 H 122.07788861250435 81.06154549241613 54.759414650545466 H 0.0 **** 0.06
32555 H 122.66054992403036 79.75591031685518 55.81929901595066 H 0.0 **** 0.06
32556 C 169.27659377972574 109.0813086310027 74.13165129884358 C 0.0 **** -0.24
32557 H 169.5350710216233 109.37044535686876 73.11275000628686 H 0.0 **** 0.06
32558 H 168.62304902742693 108.20903548695865 74.10672752484656 H 0.0 **** 0.06
32559 H 168.76248492143074 109.90726547033832 74.62282818788503 H 0.0 **** 0.06
32560 H 170.18534991055273 108.83992029410577 74.68263434621717 H 0.0 **** 0.06
32561 C 117.07996729443 59.4231004101525 64.31355424386639 C 0.0 **** -0.24
32562 H 117.86993018972792 59.84200289701968 64.93610196787519 H 0.0 **** 0.06
32563 H 116.8062538003232 58.4370456086622 64.68893034263091 H 0.0 **** 0.06
32564 H 117.43367936864534 59.33646270034565 63.286580038224386 H 0.0 **** 0.06
32565 H 116.20821954631357 60.07774052543486 64.3436470752581 H 0.0 **** 0.06
32566 C 75.04019610180023 152.4852107595729 149.49666750620725 C 0.0 **** -0.24
32567 H 74.03058522945656 152.10272153458226 149.34853841082912 H 0.0 **** 0.06
32568 H 75.579986328134 151.8279125977423 150.1790259340881 H 0.0 **** 0.06
32569 H 74.9905923761466 153.4877313196903 149.92068913348726 H 0.0 **** 0.06
32570 H 75.55884745953949 152.52049005029437 148.5390890594478 H 0.0 **** 0.06
32571 C 83.77068626028256 112.33040960803508 98.56805278871836 C 0.0 **** -0.24
32572 H 84.85536265868654 112.31579541587037 98.46193070434332 H 0.0 **** 0.06
32573 H 83.45655667523158 113.29806094619845 98.96060454328041 H 0.0 **** 0.06
32574 H 83.46247626977447 111.54115211568676 99.2549695355665 H 0.0 **** 0.06
32575 H 83.30799884138258 112.16442351425484 97.59480032876543 H 0.0 **** 0.06
32576 C 126.0488598226065 16.025903343257482 82.41551985264894 C 0.0 **** -0.24
32577 H 125.66594585775898 15.006789548548511 82.4627672443755 H 0.0 **** 0.06
32578 H 125.75640480864355 16.480260072512465 81.46842671483182 H 0.0 **** 0.06
32579 H 127.13641888089312 16.00915811270636 82.49007364597195 H 0.0 **** 0.06
32580 H 125.63764091897006 16.607330759012314 83.23978649577236 H 0.0 **** 0.06
32581 C 142.66656559277027 106.28076365956683 42.585342702505926 C 0.0 **** -0.24
32582 H 141.8073098916518 105.76641849124913 42.15472563817062 H 0.0 **** 0.06
32583 H 142.68628270678664 106.11538120447922 43.66303434129591 H 0.0 **** 0.06
32584 H 142.58905645375677 107.34918688856824 42.38329689914269 H 0.0 **** 0.06
32585 H 143.58273505194302 105.89171534653157 42.14063683907085 H 0.0 **** 0.06
32586 C 154.57610779519533 163.44577879459163 81.78162477394972 C 0.0 **** -0.24
32587 H 154.84704187763737 162.40536176679683 81.6001157874731 H 0.0 **** 0.06
32588 H 153.49330298893403 163.55418551039762 81.72341750226514 H 0.0 **** 0.06
32589 H 155.04616541460354 164.07879232665755 81.0292285635424 H 0.0 **** 0.06
32590 H 154.91952479377687 163.74320430326532 82.77275807019345 H 0.0 **** 0.06
32591 C 83.77083556832613 114.01751132149242 113.71616094888763 C 0.0 **** -0.24
32592 H 83.60232367237467 112.96581487097363 113.9492225219782 H 0.0 **** 0.06
32593 H 84.47679824706637 114.4389064424213 114.43309208722145 H 0.0 **** 0.06
32594 H 82.82631682307397 114.55853332694015 113.77452100186538 H 0.0 **** 0.06
32595 H 84.17905250123877 114.105629967188 112.70933554037866 H 0.0 **** 0.06
32596 C 173.7378616016126 42.45429655432764 123.26727298398372 C 0.0 **** -0.24
32597 H 173.09963219298328 42.96191560432453 123.99151294472681 H 0.0 **** 0.06
32598 H 173.23694319076154 41.55291607526817 122.91246970009608 H 0.0 **** 0.06
32599 H 174.6807323945612 42.18398950435943 123.74120029336571 H 0.0 **** 0.06
32600 H 173.9304683096127 43.11972820214595 122.425824983737 H 0.0 **** 0.06
32601 C 101.10598982172961 180.87458673124928 79.81202928234578 C 0.0 **** -0.24
32602 H 102.14659716554245 180.70449463044022 80.08979252210096 H 0.0 **** 0.06
32603 H 101.00007717005501 181.87753906984037 79.39790310225816 H 0.0 **** 0.06
32604 H 100.47424348641117 180.77753693273937 80.69528761466685 H 0.0 **** 0.06
32605 H 100.80360766287835 180.1390818985868 79.06639328461256 H 0.0 **** 0.06
32606 C 167.66453097631447 29.732684900958645 115.66583809589889 C 0.0 **** -0.24
32607 H 166.93267206563704 28.971272116470516 115.39655856794792 H 0.0 **** 0.06
32608 H 167.2046703844843 30.71874113639234 115.59721805954808 H 0.0 **** 0.06
32609 H 168.51278099589416 29.677943083184374 114.98219736783682 H 0.0 **** 0.06
32610 H 168.00823280766247 29.561443587757253 116.68560317131721 H 0.0 **** 0.06
32611 C 138.3948299778806 122.80056063219847 125.50055759656318 C 0.0 **** -0.24
32612 H 139.24549028903448 122.7969221230622 126.18147105594566 H 0.0 **** 0.06
32613 H 137.46865584416895 122.81670669611644 126.07662719886982 H 0.0 **** 0.06
32614 H 138.42074137608427 121.90464299716389 124.88078220332396 H 0.0 **** 0.06
32615 H 138.44271566929262 123.68412555029359 124.86477434968849 H 0.0 **** 0.06
32616 C 8.287927772131184 141.82036631814344 80.77424566768013 C 0.0 **** -0.24
32617 H 7.367768022741927 141.86209517771687 80.19066351975175 H 0.0 **** 0.06
32618 H 9.07361252851723 142.36816657103384 80.25233691026256 H 0.0 **** 0.06
32619 H 8.59118797311902 140.78128467235786 80.90066534840753 H 0.0 **** 0.06
32620 H 8.118473196245475 142.2719157891422 81.7511804445549 H 0.0 **** 0.06
32621 C 1.6153160986667245 56.18066467586834 127.71075147936386 C 0.0 **** -0.24
32622 H 1.907470055597578 55.14429701912212 127.54237838085265 H 0.0 **** 0.06
32623 H 1.049403308632158 56.25305687381356 128.63971943160965 H 0.0 **** 0.06
32624 H 0.9970137863513884 56.523216433762 126.88006504878064 H 0.0 **** 0.06
32625 H 2.50750272812369 56.8024925679951 127.77843037481966 H 0.0 **** 0.06
32626 C 60.05804342789344 164.38037497144074 55.25885761557382 C 0.0 **** -0.24
32627 H 60.071177268532196 163.36593461089677 55.659662636681446 H 0.0 **** 0.06
32628 H 61.06147609272759 164.65535423829465 54.93498783405778 H 0.0 **** 0.06
32629 H 59.72221929620456 165.07101085123418 56.032200741394405 H 0.0 **** 0.06
32630 H 59.375498392789595 164.42618839691588 54.40940378879938 H 0.0 **** 0.06
32631 C 109.95966907580392 136.53109197051475 117.82658133620605 C 0.0 **** -0.24
32632 H 110.23278700069118 135.7179613760751 118.49896782713647 H 0.0 **** 0.06
32633 H 110.33149627812561 137.47423914461808 118.22695279155293 H 0.0 **** 0.06
32634 H 108.8737307433595 136.57817227045712 117.73487642436056 H 0.0 **** 0.06
32635 H 110.399100841547 136.35343560167627 116.8450293502183 H 0.0 **** 0.06
32636 C 156.3800703462436 183.6404565260475 7.142251622880146 C 0.0 **** -0.24
32637 H 157.1039756281188 184.0371553273696 6.429598413863516 H 0.0 **** 0.06
32638 H 156.43269987934033 182.55096196925714 7.143322790629192 H 0.0 **** 0.06
32639 H 155.37698813891342 183.9556745133785 6.8549293843843415 H 0.0 **** 0.06
32640 H 156.60861195515986 184.01729489212119 8.138815682128524 H 0.0 **** 0.06
32641 C 162.12089959551875 90.43375622318256 25.602372862101987 C 0.0 **** -0.24
32642 H 161.81182336720104 90.2165822751523 26.625332172251092 H 0.0 **** 0.06
32643 H 162.14877750140238 89.50867641448242 25.02655558774302 H 0.0 **** 0.06
32644 H 163.11320124238478 90.88556332102779 25.61181587256513 H 0.0 **** 0.06
32645 H 161.41116381231424 91.12507872844988 25.14762162946954 H 0.0 **** 0.06
32646 C 160.7132773997333 61.048125722595344 37.06258207206605 C 0.0 **** -0.24
32647 H 161.54224006759725 61.30347563546515 37.723590930172065 H 0.0 **** 0.06
32648 H 160.26439117872016 61.96223408330691 36.6740754094304 H 0.0 **** 0.06
32649 H 159.96610883294971 60.48343517004933 37.61913399763313 H 0.0 **** 0.06
32650 H 161.0832010616669 60.44363457928016 36.234479842354915 H 0.0 **** 0.06
32651 C 41.52738102126902 116.69610174604422 121.90738476800034 C 0.0 **** -0.24
32652 H 40.54455381184333 116.3422418507423 122.2193642928131 H 0.0 **** 0.06
32653 H 42.0283810918298 115.91576840433198 121.3328151756006 H 0.0 **** 0.06
32654 H 42.122516948998964 116.93985202145858 122.78723554227658 H 0.0 **** 0.06
32655 H 41.41157291263899 117.58652965230156 121.2884647251533 H 0.0 **** 0.06
32656 C 40.500541509853065 181.86922611309433 58.000836426769624 C 0.0 **** -0.24
32657 H 40.82901987334992 182.90592399084454 57.93105230549976 H 0.0 **** 0.06
32658 H 40.90819632044057 181.3017139399514 57.16391118121294 H 0.0 **** 0.06
32659 H 39.41088763228464 181.8309722136532 57.96997430581597 H 0.0 **** 0.06
32660 H 40.85313549637354 181.43866962851146 58.9383890772438 H 0.0 **** 0.06
32661 C 90.84461528835135 129.324308576462 9.021109056775941 C 0.0 **** -0.24
32662 H 90.39048628927162 128.35146358688354 9.212746405397212 H 0.0 **** 0.06
32663 H 90.3478121822103 129.79671140644803 8.174083327195376 H 0.0 **** 0.06
32664 H 91.9025129254673 129.19277082111756 8.794839835960914 H 0.0 **** 0.06
32665 H 90.73785667673405 129.95512321272832 9.90354084137698 H 0.0 **** 0.06
32666 C 86.93760611263961 20.79104665289975 104.96635601126303 C 0.0 **** -0.24
32667 H 86.8709931192203 20.934756394155443 106.04479867698456 H 0.0 **** 0.06
32668 H 86.31284258123817 21.529868792250454 104.46305612653407 H 0.0 **** 0.06
32669 H 86.59212583929717 19.788754801520668 104.71118976707362 H 0.0 **** 0.06
32670 H 87.97230866071915 20.911394025594575 104.64625993729567 H 0.0 **** 0.06
32671 C 30.676499804203615 43.7626640455598 30.295544875542646 C 0.0 **** -0.24
32672 H 30.017669391691072 43.647424258688204 29.434591535305685 H 0.0 **** 0.06
32673 H 31.536938844969043 44.37075498692451 30.01528706294073 H 0.0 **** 0.06
32674 H 31.016996649219152 42.7814989976394 30.626486579724883 H 0.0 **** 0.06
32675 H 30.13362823618573 44.250888761529126 31.105177793814505 H 0.0 **** 0.06
32676 C 55.617566447172265 71.99678161958042 152.237220683173 C 0.0 **** -0.24
32677 H 56.11881701891869 72.06501801104946 153.20353225874663 H 0.0 **** 0.06
32678 H 54.71496451236942 72.60808894297435 152.2526634747383 H 0.0 **** 0.06
32679 H 55.349682321967634 70.95892147556947 152.0400411391542 H 0.0 **** 0.06
32680 H 56.28640107699482 72.3552076347346 151.4554436272232 H 0.0 **** 0.06
32681 C 39.88009979989681 73.95110732829693 133.50834095668603 C 0.0 **** -0.24
32682 H 40.87333416468286 73.9631261621571 133.95532682532757 H 0.0 **** 0.06
32683 H 39.34772507311561 73.0546663167317 133.82955751661552 H 0.0 **** 0.06
32684 H 39.96982094068284 73.95030958120321 132.42256988724773 H 0.0 **** 0.06
32685 H 39.327713781254005 74.8357656791598 133.82710369443618 H 0.0 **** 0.06
32686 C 75.45846304346914 131.58470058603945 45.49483015042516 C 0.0 **** -0.24
32687 H 74.40933989618867 131.60048600288172 45.79036662760389 H 0.0 **** 0.06
32688 H 76.06277727243011 132.04139569580906 46.279407286781705 H 0.0 **** 0.06
32689 H 75.58253053558929 132.14432789674464 44.56737561801775 H 0.0 **** 0.06
32690 H 75.77778670423388 130.55415183903284 45.3429189343594 H 0.0 **** 0.06
32691 C 67.0303143725687 49.24906006361097 58.85762480865202 C 0.0 **** -0.24
32692 H 68.0838986720676 48.968348743265466 58.85016415965295 H 0.0 **** 0.06
32693 H 66.55695097367659 48.904557646536134 57.93722892400993 H 0.0 **** 0.06
32694 H 66.94439973862664 50.33316817398327 58.92799974819539 H 0.0 **** 0.06
32695 H 66.53859832179602 48.788487791036886 59.71389161620266 H 0.0 **** 0.06
32696 C 111.48230213611386 40.22363974970122 146.61425825197597 C 0.0 **** -0.24
32697 H 111.56179500059706 41.27213586243545 146.32448560472105 H 0.0 **** 0.06
32698 H 112.33850787542839 39.67370860064844 146.22470234349174 H 0.0 **** 0.06
32699 H 110.56238064223909 39.803035700483804 146.20709727287215 H 0.0 **** 0.06
32700 H 111.46535324708883 40.148378220377026 147.70133129006527 H 0.0 **** 0.06
32701 C 7.7000574053088755 10.119078802871996 43.89920997309537 C 0.0 **** -0.24
32702 H 7.383178538638745 10.286263490591395 42.86931412852621 H 0.0 **** 0.06
32703 H 8.198015101332174 9.152521037855827 43.974227145749865 H 0.0 **** 0.06
32704 H 6.828683901762169 10.131318482246598 44.55406932841123 H 0.0 **** 0.06
32705 H 8.39122123557948 10.908173234468606 44.198597594976405 H 0.0 **** 0.06
32706 C 62.74876488302294 87.74668247787626 1.9181810319754504 C 0.0 **** -0.24
32707 H 63.328942714524544 88.50475953240813 2.4457303314307524 H 0.0 **** 0.06
32708 H 63.39095438995639 86.89963059074923 1.6788777142069193 H 0.0 **** 0.06
32709 H 62.349705861101555 88.17172768638089 0.9972783075837128 H 0.0 **** 0.06
32710 H 61.926766283348556 87.41325274264811 2.550279311586962 H 0.0 **** 0.06
32711 C 38.57775955257938 66.44341717653936 111.2667736866063 C 0.0 **** -0.24
32712 H 39.18154745384065 66.07384015712586 110.43773848304507 H 0.0 **** 0.06
32713 H 37.576685063173954 66.01641275477863 111.20539406990723 H 0.0 **** 0.06
32714 H 38.513957494574484 67.53002133137204 111.21386755866239 H 0.0 **** 0.06
32715 H 39.04026788171694 66.1516883694004 112.20982284661586 H 0.0 **** 0.06
32716 C 137.8399389772028 18.160356916135633 92.53206218880558 C 0.0 **** -0.24
32717 H 136.86960066880744 18.356326424055318 92.98859465137087 H 0.0 **** 0.06
32718 H 138.393274642758 19.095010911612597 92.43990516587405 H 0.0 **** 0.06
32719 H 137.69433336704162 17.725017223057172 91.54405323589987 H 0.0 **** 0.06
32720 H 138.4006113468236 17.465046648613033 93.1568145314339 H 0.0 **** 0.06
32721 C 161.50520688512293 159.06150575504478 79.89561949146058 C 0.0 **** -0.24
32722 H 161.9737479007439 158.18252256797507 80.33913302580592 H 0.0 **** 0.06
32723 H 161.84573796181164 159.9556343268457 80.41767221175519 H 0.0 **** 0.06
32724 H 160.42205526018412 158.979040530261 79.98488541136604 H 0.0 **** 0.06
32725 H 161.7797718022583 159.12738295201137 78.84337254519187 H 0.0 **** 0.06
32726 C 134.91342861660672 168.51206691612273 138.1164812815279 C 0.0 **** -0.24
32727 H 134.2041035159869 168.95717132232454 137.41812152195268 H 0.0 **** 0.06
32728 H 134.45857610574524 168.45108688009248 139.1060852613369 H 0.0 **** 0.06
32729 H 135.81015749944174 169.12965331387485 138.16595564144944 H 0.0 **** 0.06
32730 H 135.1789236794063 167.51159120402787 137.77657385804628 H 0.0 **** 0.06
32731 C 21.578920482780177 53.43273835746848 37.68639046451517 C 0.0 **** -0.24
32732 H 21.91052560161293 54.26394439272974 37.063685921180394 H 0.0 **** 0.06
32733 H 20.499553283735395 53.49065379422498 37.823851712872056 H 0.0 **** 0.06
32734 H 22.073240072672036 53.487258373933756 38.65651833403979 H 0.0 **** 0.06
32735 H 21.83478678334319 52.491498831600126 37.19997094191919 H 0.0 **** 0.06
32736 C 119.89733103353676 175.24952877697558 103.29741101049787 C 0.0 **** -0.24
32737 H 120.15050298148812 174.31426545703422 102.7968904007112 H 0.0 **** 0.06
32738 H 118.88849642602621 175.55117791379317 103.01608754766825 H 0.0 **** 0.06
32739 H 120.60525496038532 176.02298722393445 102.99875381585225 H 0.0 **** 0.06
32740 H 119.94832897562601 175.10818683229175 104.37684698328765 H 0.0 **** 0.06
32741 C 184.9434928099794 26.723982413886347 115.94065233779666 C 0.0 **** -0.24
32742 H 184.77391972360698 27.79954432935733 115.99993911824605 H 0.0 **** 0.06
32743 H 185.06245858452755 26.319674401870486 116.94611966744942 H 0.0 **** 0.06
32744 H 185.8462152561473 26.529586992424015 115.36112927574204 H 0.0 **** 0.06
32745 H 184.0907336719157 26.247917824597494 115.45639855277052 H 0.0 **** 0.06
32746 C 169.99764809741862 120.67742979535065 124.79275228622338 C 0.0 **** -0.24
32747 H 170.2298278531521 120.53517588667212 125.84804785717084 H 0.0 **** 0.06
32748 H 168.9559330317909 120.41208567630976 124.61170646324577 H 0.0 **** 0.06
32749 H 170.64609576726355 120.04196752243503 124.18960828862818 H 0.0 **** 0.06
32750 H 170.159131581906 121.72139693158952 124.52365179890934 H 0.0 **** 0.06
32751 C 94.56803864228937 133.10664033662908 24.452179750495645 C 0.0 **** -0.24
32752 H 95.34205627630394 132.70408121005158 25.106137113589455 H 0.0 **** 0.06
32753 H 94.27605400088856 134.09657003873082 24.80213332878418 H 0.0 **** 0.06
32754 H 93.70207013931667 132.4461803957965 24.465200371233905 H 0.0 **** 0.06
32755 H 94.95440852725483 133.1794691853405 23.435170088008917 H 0.0 **** 0.06
32756 C 33.20907413168527 53.28907346987222 69.07130863794822 C 0.0 **** -0.24
32757 H 32.78184288008515 54.29086939333527 69.12869139707576 H 0.0 **** 0.06
32758 H 34.08410250359833 53.22978410490845 69.7180276389791 H 0.0 **** 0.06
32759 H 33.50167456727098 53.07753344137632 68.04260597108868 H 0.0 **** 0.06
32760 H 32.46674480249453 52.5592302781771 69.3958290054108 H 0.0 **** 0.06
32761 C 162.46015666746163 25.276285841750337 108.11750563149637 C 0.0 **** -0.24
32762 H 163.23046182224294 26.045832098714243 108.16417340855698 H 0.0 **** 0.06
32763 H 161.5389832820222 25.70751645280285 107.72393460892964 H 0.0 **** 0.06
32764 H 162.27870538305447 24.88323211540626 109.11871270576036 H 0.0 **** 0.06
32765 H 162.79188369887723 24.468865165661725 107.46533665666085 H 0.0 **** 0.06
32766 C 84.314597657569 106.83041309351307 149.67870356211915 C 0.0 **** -0.24
32767 H 83.50815998846701 106.77926163464122 150.40896935720204 H 0.0 **** 0.06
32768 H 84.4217165061312 105.86251041544523 149.18754029281416 H 0.0 **** 0.06
32769 H 85.246433442098 107.08645172039803 150.18283018643476 H 0.0 **** 0.06
32770 H 84.08252376537516 107.59247483460518 148.93452886372944 H 0.0 **** 0.06
32771 C 156.90698218503542 5.7130799201160585 24.841143855996904 C 0.0 **** -0.24
32772 H 157.46601525012647 4.805918339354719 25.07148766866915 H 0.0 **** 0.06
32773 H 157.3638101316535 6.214186309069305 23.98635965192952 H 0.0 **** 0.06
32774 H 156.9243782571467 6.378377094928396 25.704558829607308 H 0.0 **** 0.06
32775 H 155.87615586067045 5.453542906552684 24.60210208950714 H 0.0 **** 0.06
32776 C 32.903525666606754 77.51285530233807 62.91702743473206 C 0.0 **** -0.24
32777 H 33.71387229696467 78.15176563898879 62.56634199542725 H 0.0 **** 0.06
32778 H 32.14463304647981 78.12391361516903 63.40616146956859 H 0.0 **** 0.06
32779 H 33.296954001534615 76.78510770965691 63.627483609139546 H 0.0 **** 0.06
32780 H 32.460195256906644 76.99000310612338 62.06960363844115 H 0.0 **** 0.06
32781 C 10.995727928513567 33.012685263252536 48.04545008894745 C 0.0 **** -0.24
32782 H 11.175814381194144 31.95054969631235 48.20581288131471 H 0.0 **** 0.06
32783 H 9.921809429984656 33.196921472529624 48.00315985457408 H 0.0 **** 0.06
32784 H 11.454097012228736 33.321140019637454 47.10549965106418 H 0.0 **** 0.06
32785 H 11.430519720133418 33.583614167544454 48.865796140425786 H 0.0 **** 0.06
32786 C 36.67040238615675 151.19193674747038 172.23382209829012 C 0.0 **** -0.24
32787 H 36.424070330338196 151.56328351453305 173.22830258926268 H 0.0 **** 0.06
32788 H 37.540579577779326 150.53858362045702 172.29578745380473 H 0.0 **** 0.06
32789 H 36.8923366142554 152.03315566600304 171.57755364702479 H 0.0 **** 0.06
32790 H 35.823594186627005 150.6337353394715 171.83535326835104 H 0.0 **** 0.06
32791 C 20.930323319017475 52.625713203366104 65.87661327863776 C 0.0 **** -0.24
32792 H 21.147346635292706 53.13284884823008 66.81607730183418 H 0.0 **** 0.06
32793 H 19.94348107926305 52.92494936347481 65.52241630496269 H 0.0 **** 0.06
32794 H 20.94813728373083 51.546927336606814 66.03395080780211 H 0.0 **** 0.06
32795 H 21.680650791065545 52.89874403385295 65.13490632656834 H 0.0 **** 0.06
32796 C 64.64932586757602 167.95222737376085 33.49172497258371 C 0.0 **** -0.24
32797 H 64.23277851684514 167.75522297408335 32.50354282731402 H 0.0 **** 0.06
32798 H 65.43855714771378 168.69950007262526 33.41062714461151 H 0.0 **** 0.06
32799 H 65.06167255493592 167.0307511576791 33.90266919494957 H 0.0 **** 0.06
32800 H 63.86357843634046 168.3235489440652 34.149372766604074 H 0.0 **** 0.06
32801 C 44.01649801772163 32.67664883045498 182.57697320408232 C 0.0 **** -0.24
32802 H 43.43424299158954 33.502979496972756 182.16969066338783 H 0.0 **** 0.06
32803 H 44.42226442781015 32.07998521541924 181.75939290918177 H 0.0 **** 0.06
32804 H 43.37559115607317 32.052049153420114 183.19877782545382 H 0.0 **** 0.06
32805 H 44.835081505785155 33.07037854254523 183.18040785515856 H 0.0 **** 0.06
32806 C 117.68186741777458 183.4473528179567 182.84571614243276 C 0.0 **** -0.24
32807 H 116.95005204914207 182.69278621134663 182.5567976885955 H 0.0 **** 0.06
32808 H 117.97517135941541 183.29019788778407 183.8829926019671 H 0.0 **** 0.06
32809 H 117.24202858945927 184.43974323533374 182.73908375282605 H 0.0 **** 0.06
32810 H 118.55804603427498 183.36827241863142 182.2026635242372 H 0.0 **** 0.06
32811 C 132.7632794636031 98.34222265735671 132.53377749869577 C 0.0 **** -0.24
32812 H 132.5145366621789 97.28182893105448 132.5507330270724 H 0.0 **** 0.06
32813 H 133.44384629328567 98.5433600794557 131.70556138725283 H 0.0 **** 0.06
32814 H 133.24245561908953 98.61867468673726 133.47287059656622 H 0.0 **** 0.06
32815 H 131.85199887769772 98.92640606058175 132.40580559627426 H 0.0 **** 0.06
32816 C 22.231120501439108 163.22376822678572 142.6531729056149 C 0.0 **** -0.24
32817 H 23.232201894684323 163.08177880885887 142.2463640985497 H 0.0 **** 0.06
32818 H 22.27065992970593 163.94194711490647 143.47199283348857 H 0.0 **** 0.06
32819 H 21.85030686162979 162.27149990004347 143.02255126597117 H 0.0 **** 0.06
32820 H 21.570937702756694 163.60018190218162 141.87091922948434 H 0.0 **** 0.06
32821 C 31.838364969806264 34.885445728440175 115.98759589496045 C 0.0 **** -0.24
32822 H 31.636250620174707 34.16478491542706 116.7801816333555 H 0.0 **** 0.06
32823 H 31.48325120182767 35.87019549515382 116.29341038623086 H 0.0 **** 0.06
32824 H 31.322126684572225 34.57879267782971 115.07840874187595 H 0.0 **** 0.06
32825 H 32.91131679635157 34.92877709293428 115.8004191472482 H 0.0 **** 0.06
32826 C 137.10484028226114 6.802587834305939 32.156731788161125 C 0.0 **** -0.24
32827 H 138.07273372647887 6.76596488880341 32.65641508516657 H 0.0 **** 0.06
32828 H 136.98432272749983 7.771243681318083 31.66993226675504 H 0.0 **** 0.06
32829 H 136.31192681087163 6.664386521114892 32.8916385728171 H 0.0 **** 0.06
32830 H 137.0506638374506 6.010667366672919 31.41006637705067 H 0.0 **** 0.06
32831 C 164.65828040057187 177.87353780993843 126.79489643530644 C 0.0 **** -0.24
32832 H 164.50641499171445 177.94523647166997 127.87214272868277 H 0.0 **** 0.06
32833 H 164.79786900699418 176.82862076294163 126.51663978144393 H 0.0 **** 0.06
32834 H 165.5426962662963 178.445673183089 126.51436825929011 H 0.0 **** 0.06
32835 H 163.78728682550658 178.2743218679854 126.27720862071095 H 0.0 **** 0.06
32836 C 11.521706980796523 66.00954633126508 26.898612478175323 C 0.0 **** -0.24
32837 H 10.745597947991683 66.17763150919716 26.151353134015835 H 0.0 **** 0.06
32838 H 11.119469372749222 66.20824328518657 27.892030714224177 H 0.0 **** 0.06
32839 H 12.361194311740093 66.6773525537948 26.706533793493463 H 0.0 **** 0.06
32840 H 11.860718339459595 64.97505981590523 26.84312993027487 H 0.0 **** 0.06
32841 C 170.64446173613823 129.0524852035178 96.53631838553268 C 0.0 **** -0.24
32842 H 171.58717345191818 128.7189760127896 96.96970919696334 H 0.0 **** 0.06
32843 H 169.84303682702338 128.3838984404831 96.85142666924237 H 0.0 **** 0.06
32844 H 170.72040102844946 129.04107317811486 95.44853652362947 H 0.0 **** 0.06
32845 H 170.4280247884753 130.0654953912382 96.87524133484725 H 0.0 **** 0.06
32846 C 133.31744666106607 134.99286941182925 74.03384007325815 C 0.0 **** -0.24
32847 H 133.43168903640003 134.80309816533259 75.10180025697696 H 0.0 **** 0.06
32848 H 132.58507021625894 134.29934288488857 73.61899058709918 H 0.0 **** 0.06
32849 H 134.27638570040517 134.85164792029292 73.5357830893775 H 0.0 **** 0.06
32850 H 132.97576055687097 136.01683920819232 73.88223918564387 H 0.0 **** 0.06
32851 C 156.06222712536552 153.24445206677922 83.75352936159925 C 0.0 **** -0.24
32852 H 155.8823861237794 152.23459775908555 84.1213266397691 H 0.0 **** 0.06
32853 H 157.05766354325965 153.2995004684728 83.31304852115332 H 0.0 **** 0.06
32854 H 155.99156413373794 153.9506314716116 84.58192709100824 H 0.0 **** 0.06
32855 H 155.31639732779848 153.49452619755067 82.99957565995112 H 0.0 **** 0.06
32856 C 37.64086803283733 17.73814920774258 185.19109298628018 C 0.0 **** -0.24
32857 H 37.18633926702617 18.70992263454123 184.99746607859578 H 0.0 **** 0.06
32858 H 37.50398928914335 17.094345496212007 184.32102666325267 H 0.0 **** 0.06
32859 H 37.166097976740346 17.28160864699248 186.059610962411 H 0.0 **** 0.06
32860 H 38.7050805197088 17.867805185790857 185.38427797069585 H 0.0 **** 0.06
32861 C 127.18112844170976 110.74718029046329 99.32266484101332 C 0.0 **** -0.24
32862 H 126.49775497226189 110.19130328284064 98.68109192635681 H 0.0 **** 0.06
32863 H 126.96431157112956 111.81241982490656 99.24884397892184 H 0.0 **** 0.06
32864 H 128.2073533655477 110.56124211725728 99.0071070102973 H 0.0 **** 0.06
32865 H 127.05429062816388 110.42132684894267 100.35518315724816 H 0.0 **** 0.06
32866 C 142.63701837140553 159.0973788513897 129.02690298698337 C 0.0 **** -0.24
32867 H 143.20218378527034 160.01281833713648 128.84819373240254 H 0.0 **** 0.06
32868 H 141.91018295840905 158.95689244870533 128.22709975703157 H 0.0 **** 0.06
32869 H 142.1171421521966 159.17193586797953 129.9826630829226 H 0.0 **** 0.06
32870 H 143.31995306590807 158.24805060230835 129.05067475698831 H 0.0 **** 0.06
32871 C 19.90939407998217 21.47806950606531 72.79490778122758 C 0.0 **** -0.24
32872 H 19.079735797362822 21.515838639750825 73.50250515824132 H 0.0 **** 0.06
32873 H 20.852804036228115 21.515340258668488 73.34042765341803 H 0.0 **** 0.06
32874 H 19.847294630242175 22.329921556684468 72.11802736721455 H 0.0 **** 0.06
32875 H 19.855958946058337 20.553066223159306 72.2224464906165 H 0.0 **** 0.06
32876 C 62.446407885666076 76.04848167589263 40.52410156727636 C 0.0 **** -0.24
32877 H 61.99744048955118 77.0402262732226 40.46783169174594 H 0.0 **** 0.06
32878 H 62.52424924543767 75.74414012162356 41.56763416999625 H 0.0 **** 0.06
32879 H 63.4407757392666 76.07455809038228 40.07752461451048 H 0.0 **** 0.06
32880 H 61.8235359489515 75.33649034926349 39.98213175484511 H 0.0 **** 0.06
32881 C 14.91161588088412 99.18165342136778 31.860588700589318 C 0.0 **** -0.24
32882 H 14.098097117551973 98.46515470602036 31.974869842194153 H 0.0 **** 0.06
32883 H 15.50670150250135 98.91676172998409 30.985781353461846 H 0.0 **** 0.06
32884 H 15.5420072028733 99.1604302596303 32.7497381424171 H 0.0 **** 0.06
32885 H 14.49947401165332 100.18228292825766 31.73095063346375 H 0.0 **** 0.06
32886 C 128.12796492500337 101.93421726986725 65.95019297459302 C 0.0 **** -0.24
32887 H 128.05903786942372 100.89394229768976 65.62994394554424 H 0.0 **** 0.06
32888 H 128.78755578241032 102.00478458977574 66.8148816515879 H 0.0 **** 0.06
32889 H 127.13613445347097 102.29734773951361 66.21812565851803 H 0.0 **** 0.06
32890 H 128.52820248537057 102.53837645542507 65.1363072794256 H 0.0 **** 0.06
32891 C 5.265258431125133 124.40286196856373 17.1197799191846 C 0.0 **** -0.24
32892 H 4.873559822446268 125.08638452711845 16.367291085588434 H 0.0 **** 0.06
32893 H 4.51363689681785 123.6475594081255 17.350828597696356 H 0.0 **** 0.06
32894 H 5.51144098079066 124.95993652841484 18.024170028012563 H 0.0 **** 0.06
32895 H 6.162256345308869 123.91658442459315 16.73694935125112 H 0.0 **** 0.06
32896 C 60.971174623666826 28.76352667175017 108.89506841193429 C 0.0 **** -0.24
32897 H 60.82839579536078 28.803550059370167 107.81487643123751 H 0.0 **** 0.06
32898 H 61.90159805585182 28.240053951491134 109.11887849488699 H 0.0 **** 0.06
32899 H 60.135912468699416 28.232996170763997 109.35283789264332 H 0.0 **** 0.06
32900 H 61.02021099455412 29.776965659745628 109.29175869872569 H 0.0 **** 0.06
32901 C 66.08172691434004 56.72193955974899 152.99364902852048 C 0.0 **** -0.24
32902 H 65.45123711973514 57.585849243889356 152.78092370171214 H 0.0 **** 0.06
32903 H 66.80463953451897 56.9807120878522 153.7663866622572 H 0.0 **** 0.06
32904 H 66.60887033505907 56.425485826016484 152.08601837844088 H 0.0 **** 0.06
32905 H 65.46010654490962 55.895869105404415 153.3384824294678 H 0.0 **** 0.06
32906 C 111.24702299712563 75.38299528009496 96.10140814580916 C 0.0 **** -0.24
32907 H 112.15341041021271 75.3985867308103 95.49614280902728 H 0.0 **** 0.06
32908 H 110.68225175289145 74.47537354632354 95.88435138669587 H 0.0 **** 0.06
32909 H 110.63763094320548 76.25492992552499 95.86670487006842 H 0.0 **** 0.06
32910 H 111.51498443335659 75.4001192060888 97.15806647088783 H 0.0 **** 0.06
32911 C 17.93635009495572 165.88918445912748 110.36071340374052 C 0.0 **** -0.24
32912 H 17.73504215590745 164.87245375161876 110.02415266419963 H 0.0 **** 0.06
32913 H 18.968753621211327 165.9599306441894 110.70307037929867 H 0.0 **** 0.06
32914 H 17.263753362200468 166.14130281973985 111.18015059710955 H 0.0 **** 0.06
32915 H 17.77909567675868 166.5828502985009 109.53483864857996 H 0.0 **** 0.06
32916 C 79.19532573453876 152.30248157015006 92.2077013438423 C 0.0 **** -0.24
32917 H 80.21582504423213 152.59130283824103 92.45915868888989 H 0.0 **** 0.06
32918 H 78.85993418563919 152.8688495278228 91.33895327579432 H 0.0 **** 0.06
32919 H 78.53945188973188 152.5112116114885 93.05295138663848 H 0.0 **** 0.06
32920 H 79.16574276599226 151.23637588808117 91.98005487461512 H 0.0 **** 0.06
32921 C 181.32135250481087 31.179265463263192 50.19841438566837 C 0.0 **** -0.24
32922 H 180.58682130481125 31.09342260727618 49.397724507354184 H 0.0 **** 0.06
32923 H 180.8473405706036 30.944663324771966 51.15222092786345 H 0.0 **** 0.06
32924 H 181.71081578927678 32.1966058460153 50.22497075523091 H 0.0 **** 0.06
32925 H 182.1393057130173 30.48175313838908 50.016910999346734 H 0.0 **** 0.06
32926 C 54.230180555137025 117.78315281801235 133.61614828270052 C 0.0 **** -0.24
32927 H 53.78744741317428 117.33505571355312 134.50574072595248 H 0.0 **** 0.06
32928 H 55.173517268086925 117.2855280452149 133.39036784877692 H 0.0 **** 0.06
32929 H 54.41212470145811 118.84299046799987 133.79580033436247 H 0.0 **** 0.06
32930 H 53.54835509408389 117.66877356706544 132.77423631683502 H 0.0 **** 0.06
32931 C 117.10519959394713 28.409923518472 133.75333188361446 C 0.0 **** -0.24
32932 H 116.14268821166007 28.365432702530427 133.24285779860452 H 0.0 **** 0.06
32933 H 117.71384587236724 29.20040524523813 133.31147130470237 H 0.0 **** 0.06
32934 H 117.6178308427559 27.45394221194161 133.64585485816303 H 0.0 **** 0.06
32935 H 116.94640748071504 28.621716201457843 134.81035944690018 H 0.0 **** 0.06
32936 C 152.30644049638016 184.81454274520036 20.012584135681628 C 0.0 **** -0.24
32937 H 152.22295588663508 183.7277541228541 20.046306547179192 H 0.0 **** 0.06
32938 H 153.33809291950791 185.10556432219607 20.210649998392483 H 0.0 **** 0.06
32939 H 151.65359155772543 185.25230677951856 20.766811052668665 H 0.0 **** 0.06
32940 H 152.01092959474627 185.17006544193373 19.024892224747987 H 0.0 **** 0.06
32941 C 21.57992015272235 41.15374880558909 48.26869729323272 C 0.0 **** -0.24
32942 H 21.800996377604918 40.0914771837476 48.3813370461657 H 0.0 **** 0.06
32943 H 21.84098609828193 41.67842376779356 49.18816895578766 H 0.0 **** 0.06
32944 H 20.51696284863337 41.28321830003216 48.06541724136582 H 0.0 **** 0.06
32945 H 22.160778908746494 41.559681149774576 47.44029134870459 H 0.0 **** 0.06
32946 C 27.092760655917118 59.50369181500052 151.8379819170204 C 0.0 **** -0.24
32947 H 26.844615208970083 59.76379136747494 152.8661800407283 H 0.0 **** 0.06
32948 H 26.2500744427914 59.74261541675642 151.18940900997143 H 0.0 **** 0.06
32949 H 27.30877253000972 58.437428693499996 151.7749329230548 H 0.0 **** 0.06
32950 H 27.968520860498273 60.070380245001544 151.52050487862698 H 0.0 **** 0.06
32951 C 43.59678328394402 24.984812469040563 105.14896517171717 C 0.0 **** -0.24
32952 H 42.59498420324405 25.333790089649682 105.39698040450652 H 0.0 **** 0.06
32953 H 43.55245767579294 24.35147660068239 104.26255144269912 H 0.0 **** 0.06
32954 H 43.999509454163416 24.411152190728984 105.98467799283758 H 0.0 **** 0.06
32955 H 44.24194612649532 25.841149770416067 104.95189740909858 H 0.0 **** 0.06
32956 C 96.64459604067024 65.40396578698325 156.63826617494658 C 0.0 **** -0.24
32957 H 95.67467252336878 65.81658454574091 156.91631203267718 H 0.0 **** 0.06
32958 H 96.82225414369138 65.57545423485432 155.57720602481453 H 0.0 **** 0.06
32959 H 96.65528576748106 64.33316180895574 156.8407875933484 H 0.0 **** 0.06
32960 H 97.42647931230637 65.89095473802264 157.22117155207138 H 0.0 **** 0.06
32961 C 13.667466900102 47.76268484669512 43.01034439622009 C 0.0 **** -0.24
32962 H 13.291525066771385 46.80051134525752 42.66423570717805 H 0.0 **** 0.06
32963 H 14.757305443662545 47.75347389647885 42.99470886048539 H 0.0 **** 0.06
32964 H 13.320475670598825 47.942869930361724 44.02864583864309 H 0.0 **** 0.06
32965 H 13.299439058104042 48.55278833428224 42.35653301150319 H 0.0 **** 0.06
32966 C 159.72620616747588 37.31906581706676 114.31160856489625 C 0.0 **** -0.24
32967 H 159.9151266592674 36.769877634980986 113.38979474128756 H 0.0 **** 0.06
32968 H 159.25591850158125 38.27380943430393 114.0755206399413 H 0.0 **** 0.06
32969 H 160.67023154215758 37.49640229935231 114.82768825708506 H 0.0 **** 0.06
32970 H 159.06566803541614 36.736875350405725 114.95331486350976 H 0.0 **** 0.06
32971 C 67.86630251798937 5.576645123436634 125.71414355102979 C 0.0 **** -0.24
32972 H 68.91609200398848 5.391845021413388 125.93959708129887 H 0.0 **** 0.06
32973 H 67.777422565775 5.991683082493978 124.70994326148036 H 0.0 **** 0.06
32974 H 67.45863673929662 6.283881100708669 126.43687674091689 H 0.0 **** 0.06
32975 H 67.31218158360069 4.639650366167302 125.77018977603905 H 0.0 **** 0.06
32976 C 166.24291839886317 181.91601030862137 76.55456434443481 C 0.0 **** -0.24
32977 H 166.5125201434444 182.20079609471685 77.57139830807641 H 0.0 **** 0.06
32978 H 165.27966708703818 181.40454229729187 76.5645534745648 H 0.0 **** 0.06
32979 H 167.00494380707917 181.24945030742288 76.14942803351559 H 0.0 **** 0.06
32980 H 166.1736258776442 182.8091741041244 75.93326944246945 H 0.0 **** 0.06
32981 C 28.075679884268254 183.08350490679166 49.2908658876013 C 0.0 **** -0.24
32982 H 27.27066663208973 183.8037336945779 49.144665608952494 H 0.0 **** 0.06
32983 H 28.923279797204344 183.57708512714774 49.76708467651126 H 0.0 **** 0.06
32984 H 28.384276866338666 182.68311799295958 48.32443088171138 H 0.0 **** 0.06
32985 H 27.724382648338974 182.2696379619001 49.9250939298625 H 0.0 **** 0.06
32986 C 83.14538348698079 79.63648611319918 19.82651231701586 C 0.0 **** -0.24
32987 H 83.7366901782543 78.85735012291563 19.344430484366256 H 0.0 **** 0.06
32988 H 82.31215954671417 79.18026867644359 20.36089315075015 H 0.0 **** 0.06
32989 H 82.76271604275428 80.32124398343171 19.070963111430324 H 0.0 **** 0.06
32990 H 83.77274636708127 80.1845844574828 20.52997688867545 H 0.0 **** 0.06
32991 C 173.00491349908427 23.726803443237657 43.2564332125927 C 0.0 **** -0.24
32992 H 173.05489992777393 24.248376163536875 44.212563241885164 H 0.0 **** 0.06
32993 H 171.96490727457734 23.650977552731888 42.938318670579235 H 0.0 **** 0.06
32994 H 173.42553234011157 22.727355490375317 43.366669050732526 H 0.0 **** 0.06
32995 H 173.57504199119535 24.280628119229505 42.510517603854225 H 0.0 **** 0.06
32996 C 142.6900156225957 95.87072059156583 52.471223779679576 C 0.0 **** -0.24
32997 H 142.1230107370584 94.9578932409791 52.65688227957881 H 0.0 **** 0.06
32998 H 142.84540708066203 95.98858871398522 51.39842184805718 H 0.0 **** 0.06
32999 H 143.6546384968774 95.80849768916755 52.97332470959657 H 0.0 **** 0.06
33000 H 142.1345846101442 96.72727019357637 52.853484865751795 H 0.0 **** 0.06
33001 C 157.16338013166393 122.19079659782386 86.6726873569068 C 0.0 **** -0.24
33002 H 157.2494954300726 121.85662542718279 87.70630824069622 H 0.0 **** 0.06
33003 H 157.46727165098085 123.23592424711791 86.60208606751348 H 0.0 **** 0.06
33004 H 156.12887064081005 122.08948159897983 86.34352969666918 H 0.0 **** 0.06
33005 H 157.8067319871694 121.58093565676853 86.03961757487389 H 0.0 **** 0.06
33006 C 144.71272070809408 181.96721792414695 92.22385054552018 C 0.0 **** -0.24
33007 H 144.14470690599705 181.86589156398702 93.149295132482 H 0.0 **** 0.06
33008 H 145.69051630960223 181.50042123529306 92.34505694103171 H 0.0 **** 0.06
33009 H 144.84026263433577 183.02345126335416 91.98894944288253 H 0.0 **** 0.06
33010 H 144.17368948942885 181.47671346670631 91.41269451182592 H 0.0 **** 0.06
33011 C 89.32332678418737 22.336843425845586 62.534059616570005 C 0.0 **** -0.24
33012 H 88.84251444126039 22.16714900407385 63.49750378194007 H 0.0 **** 0.06
33013 H 89.48887945976571 21.38099353373508 62.03742428885954 H 0.0 **** 0.06
33014 H 90.27928430251086 22.83801838105859 62.688863598201195 H 0.0 **** 0.06
33015 H 88.68045250265959 22.962571254008935 61.91400176773439 H 0.0 **** 0.06
33016 C 137.8028834903409 177.94161279766809 90.48492642887004 C 0.0 **** -0.24
33017 H 137.02379795773868 178.23260444845613 91.1888837664601 H 0.0 **** 0.06
33018 H 138.46006184534963 178.79113098299996 90.29929824202458 H 0.0 **** 0.06
33019 H 137.3456636127949 177.6238853418157 89.54742622593676 H 0.0 **** 0.06
33020 H 138.38187247676507 177.11784022910837 90.9041195919284 H 0.0 **** 0.06
33021 C 61.679685963592476 146.4405458771207 118.21176326304352 C 0.0 **** -0.24
33022 H 61.08300736388699 147.30427310145672 117.91859898967435 H 0.0 **** 0.06
33023 H 62.60173953308737 146.42065020913614 117.62954614158623 H 0.0 **** 0.06
33024 H 61.112741799628964 145.52804190459 118.02511600574077 H 0.0 **** 0.06
33025 H 61.92068475906831 146.50745173306757 119.27254530623439 H 0.0 **** 0.06
33026 C 1.2295139067650211 81.54421682377313 129.26965502079952 C 0.0 **** -0.24
33027 H 0.1955038892133416 81.21395465336911 129.36749948276474 H 0.0 **** 0.06
33028 H 1.8685337890748315 80.68125111700368 129.07859958861394 H 0.0 **** 0.06
33029 H 1.5437411940176844 82.03213761851396 130.1920594124269 H 0.0 **** 0.06
33030 H 1.3102541935980412 82.24606261098359 128.44060024627544 H 0.0 **** 0.06
33031 C 124.91001904966946 74.07079830261432 34.81397632727831 C 0.0 **** -0.24
33032 H 125.24890886901095 73.04165262401523 34.93243401485512 H 0.0 **** 0.06
33033 H 124.70728312073079 74.50175784907475 35.79444885465841 H 0.0 **** 0.06
33034 H 123.99805439979285 74.0859382940784 34.21540830865524 H 0.0 **** 0.06
33035 H 125.68238029009056 74.65289202172471 34.31317363944038 H 0.0 **** 0.06
33036 C 178.97137522263301 14.326186408424519 127.36904943682516 C 0.0 **** -0.24
33037 H 178.1666020741408 15.060396092476921 127.41818911676408 H 0.0 **** 0.06
33038 H 179.9223955636614 14.815216833055693 127.5833971762164 H 0.0 **** 0.06
33039 H 179.00344525312767 13.889999607445255 126.37123887282029 H 0.0 **** 0.06
33040 H 178.79250756321633 13.54151721696116 128.10348728906274 H 0.0 **** 0.06
33041 C 181.30943820244494 155.35270400780314 147.37465079643036 C 0.0 **** -0.24
33042 H 181.28369751384298 154.9980023223627 146.34514681327946 H 0.0 **** 0.06
33043 H 180.33937295121598 155.77574454523736 147.63750722020666 H 0.0 **** 0.06
33044 H 182.0796227856197 156.11797938929323 147.4758618905734 H 0.0 **** 0.06
33045 H 181.53525838310054 154.52036220102522 148.040671597803 H 0.0 **** 0.06
33046 C 166.33732664086222 97.26972972363906 182.82472420174727 C 0.0 **** -0.24
33047 H 166.34385744124026 98.20335327855715 183.38706908280668 H 0.0 **** 0.06
33048 H 165.75285326243034 97.39959911012171 181.91392939850562 H 0.0 **** 0.06
33049 H 165.8932682537027 96.48226120317007 183.4340130099472 H 0.0 **** 0.06
33050 H 167.35987198801934 96.99547658456295 182.56513684777624 H 0.0 **** 0.06
33051 C 148.7624486660809 127.58350735611755 96.71057615230824 C 0.0 **** -0.24
33052 H 149.6892550906116 127.69122668987062 97.27452718960548 H 0.0 **** 0.06
33053 H 148.43667570610086 128.56167418972046 96.35647306989266 H 0.0 **** 0.06
33054 H 147.99376679168148 127.15427479210338 97.35271549014622 H 0.0 **** 0.06
33055 H 148.93211061402542 126.92669932422491 95.85762868265935 H 0.0 **** 0.06
33056 C 138.22491038676964 134.95385930332128 2.8824969992863316 C 0.0 **** -0.24
33057 H 138.14873632732804 134.5137294232714 1.888335765418617 H 0.0 **** 0.06
33058 H 137.92093001740534 136.0004431251818 2.8404418344508713 H 0.0 **** 0.06
33059 H 139.25578248349763 134.88866218486515 3.2303653876932117 H 0.0 **** 0.06
33060 H 137.57505003056968 134.4129419972641 3.57045800915472 H 0.0 **** 0.06
33061 C 7.106291767098412 15.721484795472279 129.64255390258182 C 0.0 **** -0.24
33062 H 7.700707118929898 16.632431391585285 129.56400403342593 H 0.0 **** 0.06
33063 H 6.136040585523716 15.87992200733057 129.16964935845664 H 0.0 **** 0.06
33064 H 6.962806908574379 15.471605565238818 130.69329450031182 H 0.0 **** 0.06
33065 H 7.625318625250401 14.905177829690018 129.14134696628713 H 0.0 **** 0.06
33066 C 48.680882831882 36.97957763642211 180.09420462392862 C 0.0 **** -0.24
33067 H 49.52827312039341 36.81389792348182 179.42747653622544 H 0.0 **** 0.06
33068 H 49.03943847509572 37.37551074625938 181.04455045354837 H 0.0 **** 0.06
33069 H 48.16347101090628 36.03565782638964 180.26448601725616 H 0.0 **** 0.06
33070 H 47.99464954515895 37.69309542619777 179.63838602461033 H 0.0 **** 0.06
33071 C 177.72022361363187 94.0631029248576 127.94622145159553 C 0.0 **** -0.24
33072 H 178.6836300465679 94.09842672084123 128.45519261607336 H 0.0 **** 0.06
33073 H 177.82762231185535 94.46669953462508 126.93961842713378 H 0.0 **** 0.06
33074 H 176.99498494676507 94.65723396487714 128.50069462913035 H 0.0 **** 0.06
33075 H 177.37743625060125 93.03031655311058 127.88983458938543 H 0.0 **** 0.06
33076 C 132.59616093058185 179.00269045024734 183.02252849897616 C 0.0 **** -0.24
33077 H 132.0208006560352 178.12232746950957 183.30889354464426 H 0.0 **** 0.06
33078 H 132.05492322162115 179.90167498842428 183.3176876237059 H 0.0 **** 0.06
33079 H 132.7420807098016 179.00408222375518 181.94229526184563 H 0.0 **** 0.06
33080 H 133.56510435564638 178.9803249701617 183.52003001337977 H 0.0 **** 0.06
33081 C 121.99124312543408 99.85551439695125 164.0876375332398 C 0.0 **** -0.24
33082 H 122.40875345982268 98.8593489276188 164.23523783852266 H 0.0 **** 0.06
33083 H 122.75165413299716 100.60517008124573 164.3115792077184 H 0.0 **** 0.06
33084 H 121.13843495834392 99.99408218903606 164.75207305064293 H 0.0 **** 0.06
33085 H 121.6671395051623 99.9648236317724 163.05311316125196 H 0.0 **** 0.06
33086 C 144.96431790353424 146.89595353688009 59.15476275550192 C 0.0 **** -0.24
33087 H 144.90833828610693 146.37459889857956 60.11106763388672 H 0.0 **** 0.06
33088 H 144.1881415391039 146.51761091771783 58.4894827548781 H 0.0 **** 0.06
33089 H 145.94338071170867 146.72689402473486 58.706306217932905 H 0.0 **** 0.06
33090 H 144.81720095856846 147.96371798112773 59.314834744504154 H 0.0 **** 0.06
33091 C 79.57922190213647 24.700177422196674 34.585138621438176 C 0.0 **** -0.24
33092 H 80.02777660589514 23.919040938387866 33.97230601306521 H 0.0 **** 0.06
33093 H 78.62674075699002 24.348503219710267 34.982680200696294 H 0.0 **** 0.06
33094 H 79.41416172086093 25.589433913973608 33.976704241748934 H 0.0 **** 0.06
33095 H 80.25007687051063 24.94481574428653 35.40944202270582 H 0.0 **** 0.06
33096 C 170.30876961151654 147.2967217153572 19.12413452995753 C 0.0 **** -0.24
33097 H 170.772496365289 147.76320798975138 18.254981254465463 H 0.0 **** 0.06
33098 H 170.32412881473087 147.99357888130157 19.9620495283599 H 0.0 **** 0.06
33099 H 170.86029464925576 146.39497352979544 19.38998355368227 H 0.0 **** 0.06
33100 H 169.27678909326556 147.0344765327649 18.888685885182014 H 0.0 **** 0.06
33101 C 4.634348614491444 85.13805186791187 68.31868044335135 C 0.0 **** -0.24
33102 H 3.9195511286900455 84.46599716956649 67.84212883093153 H 0.0 **** 0.06
33103 H 4.95887313277845 84.70990077797055 69.2664107915028 H 0.0 **** 0.06
33104 H 4.161452693223822 86.1039846891732 68.49663999275617 H 0.0 **** 0.06
33105 H 5.496675332035693 85.27144471591457 67.6645907159299 H 0.0 **** 0.06
33106 C 92.53241509082744 71.07817618313993 38.179138762506156 C 0.0 **** -0.24
33107 H 91.5953687566477 70.67882499436325 37.79136801330709 H 0.0 **** 0.06
33108 H 92.50303851041485 71.0782504174407 39.269227015936636 H 0.0 **** 0.06
33109 H 92.6696984599032 72.09680320560142 37.81894911591286 H 0.0 **** 0.06
33110 H 93.36107452467871 70.45700005215758 37.83857139678079 H 0.0 **** 0.06
33111 C 37.86408889599082 64.09426851435285 35.50860500347852 C 0.0 **** -0.24
33112 H 37.61210148868753 63.22160554066447 34.90663155967792 H 0.0 **** 0.06
33113 H 38.07740460906392 64.93844823858946 34.85298059872599 H 0.0 **** 0.06
33114 H 38.742470146057826 63.87522074680122 36.11573251826087 H 0.0 **** 0.06
33115 H 37.02568268763373 64.34234653136983 36.15902923125785 H 0.0 **** 0.06
33116 C 165.39619905240056 86.09484983075897 24.40184631608477 C 0.0 **** -0.24
33117 H 165.56597940287904 86.23766007130872 25.46973126681172 H 0.0 **** 0.06
33118 H 166.32246896158514 86.28313023641748 23.858744194556493 H 0.0 **** 0.06
33119 H 164.62631721011599 86.78671639862544 24.060257434715055 H 0.0 **** 0.06
33120 H 165.0703562217059 85.07014317359184 24.220335695457408 H 0.0 **** 0.06
33121 C 178.71784343052167 70.21705513109444 164.48379375226193 C 0.0 **** -0.24
33122 H 178.07217114826346 69.67276060390748 165.17194715105944 H 0.0 **** 0.06
33123 H 178.35831866895427 70.08073704658666 163.46402383669 H 0.0 **** 0.06
33124 H 179.7362224557522 69.83766809302077 164.5648862135874 H 0.0 **** 0.06
33125 H 178.70405879268992 71.27752729915852 164.7358713861084 H 0.0 **** 0.06
33126 C 39.61811447679992 96.4088391105404 127.63875473319274 C 0.0 **** -0.24
33127 H 39.662751022164514 97.4117871287471 128.06370322903183 H 0.0 **** 0.06
33128 H 40.6266314614507 96.06716762614833 127.40754610033753 H 0.0 **** 0.06
33129 H 39.02218867860984 96.42914049800258 126.72573135678084 H 0.0 **** 0.06
33130 H 39.158228573376846 95.72985627927834 128.35759105808887 H 0.0 **** 0.06
33131 C 97.98685959222519 104.40391597007289 54.260388396443545 C 0.0 **** -0.24
33132 H 97.8671972208499 105.35371368934955 53.737583831126585 H 0.0 **** 0.06
33133 H 98.93228216661839 103.94674212520465 53.970292606972805 H 0.0 **** 0.06
33134 H 97.16454502018632 103.73879555130804 53.99613672829332 H 0.0 **** 0.06
33135 H 97.98203815743983 104.5787320125005 55.33588895344678 H 0.0 **** 0.06
33136 C 176.15279006456643 134.09974243808244 50.83988952812487 C 0.0 **** -0.24
33137 H 177.22612043325512 134.28797225001057 50.876697660394484 H 0.0 **** 0.06
33138 H 175.97275631231764 133.02426492124903 50.84472134053857 H 0.0 **** 0.06
33139 H 175.7394454465491 134.53416983770092 49.92969316312184 H 0.0 **** 0.06
33140 H 175.67562773619943 134.55244182319763 51.70889685532134 H 0.0 **** 0.06
33141 C 35.542961180097194 106.69621686892121 52.313011925585954 C 0.0 **** -0.24
33142 H 36.12114841397107 106.69396919678802 51.38846833110006 H 0.0 **** 0.06
33143 H 35.767215431488495 107.60025122982749 52.879282418749256 H 0.0 **** 0.06
33144 H 35.80420915998923 105.82051571417547 52.90626930479175 H 0.0 **** 0.06
33145 H 34.47905922284991 106.6704177555465 52.07560422891697 H 0.0 **** 0.06
33146 C 42.96493004416766 20.159955334354933 69.28801920266181 C 0.0 **** -0.24
33147 H 44.01111148236001 20.430208347516157 69.14271234138513 H 0.0 **** 0.06
33148 H 42.35674380673839 21.06406680144928 69.3167823686195 H 0.0 **** 0.06
33149 H 42.85669629034584 19.6186376736864 70.22749937260849 H 0.0 **** 0.06
33150 H 42.636341975921425 19.52643025232136 68.46324029186314 H 0.0 **** 0.06
33151 C 165.43107550811817 101.64021806193945 141.95596246964055 C 0.0 **** -0.24
33152 H 165.1160105124994 101.10611273830544 141.05984813457388 H 0.0 **** 0.06
33153 H 166.51250790664616 101.55446715016727 142.06782909978358 H 0.0 **** 0.06
33154 H 164.93994932419076 101.20891379789624 142.82747554092245 H 0.0 **** 0.06
33155 H 165.15719272467928 102.69176504217238 141.86669574530072 H 0.0 **** 0.06
33156 C 161.46923342519653 129.12561898722498 143.97554283913996 C 0.0 **** -0.24
33157 H 162.46048104452547 129.52741651008176 143.7641420683633 H 0.0 **** 0.06
33158 H 161.50744684394138 128.52200770373366 144.88222939522558 H 0.0 **** 0.06
33159 H 161.1429815848756 128.50552580660508 143.1397536421572 H 0.0 **** 0.06
33160 H 160.76617453340677 129.94638334740023 144.11412999400176 H 0.0 **** 0.06
33161 C 3.5773607162684016 46.77801146760298 148.58959175369668 C 0.0 **** -0.24
33162 H 3.527929400661151 47.42288743153162 149.46819914765894 H 0.0 **** 0.06
33163 H 3.352035626153622 47.36340629854266 147.69768151148668 H 0.0 **** 0.06
33164 H 2.8505269066473318 45.97181707674899 148.68990419283764 H 0.0 **** 0.06
33165 H 4.579162923674687 46.356387281023785 148.5048052149579 H 0.0 **** 0.06
33166 C 84.21638926424816 139.42218454569962 45.12973016146371 C 0.0 **** -0.24
33167 H 85.15105873621698 139.6881420237725 45.623093062868406 H 0.0 **** 0.06
33168 H 84.42831828721988 139.06496846635957 44.12193845353451 H 0.0 **** 0.06
33169 H 83.57169641109432 140.29979080867764 45.07654417602252 H 0.0 **** 0.06
33170 H 83.71697494174533 138.63734797326504 45.6966306986706 H 0.0 **** 0.06
33171 C 114.82427530148392 78.30164945642245 96.75238706559277 C 0.0 **** -0.24
33172 H 114.14711412458122 77.60390529214757 97.24513567010094 H 0.0 **** 0.06
33173 H 115.84425744741871 77.92324660605293 96.81379593126867 H 0.0 **** 0.06
33174 H 114.76549075462147 79.2728848101651 97.24413358509027 H 0.0 **** 0.06
33175 H 114.53809338468535 78.40748442980211 95.70574517676128 H 0.0 **** 0.06
33176 C 22.668099893890826 1.0613267466084153 109.40351031647322 C 0.0 **** -0.24
33177 H 23.498885180447303 0.35779289851404883 109.462292186421 H 0.0 **** 0.06
33178 H 22.850633795134854 1.7709102418181146 108.59732239270267 H 0.0 **** 0.06
33179 H 22.579989972289297 1.5982064565224618 110.3477079480345 H 0.0 **** 0.06
33180 H 21.74443032675282 0.5165647787895296 109.20723932761877 H 0.0 **** 0.06
33181 C 87.34744731507145 47.90097754703913 112.53765461294502 C 0.0 **** -0.24
33182 H 88.39478741938517 47.65176353240402 112.70675349584216 H 0.0 **** 0.06
33183 H 86.76813193858526 47.66037834472995 113.4297583694197 H 0.0 **** 0.06
33184 H 86.96874992273096 47.32719138803006 111.6920819783049 H 0.0 **** 0.06
33185 H 87.2583070449996 48.96622693113578 112.3225171057285 H 0.0 **** 0.06
33186 C 101.38723362868576 106.35834536834604 69.75702069182024 C 0.0 **** -0.24
33187 H 102.03220463610025 106.79126909963726 68.99185415753861 H 0.0 **** 0.06
33188 H 100.34636364598232 106.44888991842454 69.44737135517192 H 0.0 **** 0.06
33189 H 101.53471054772815 106.88961304853053 70.69739698805144 H 0.0 **** 0.06
33190 H 101.63830161215334 105.30687560530986 69.89088453980389 H 0.0 **** 0.06
33191 C 84.32568894187108 0.3063586643463623 128.2429798554873 C 0.0 **** -0.24
33192 H 83.35872620379911 0.8053136356171535 128.31978094126106 H 0.0 **** 0.06
33193 H 84.47484993450092 -0.03873268167308197 127.2195750777761 H 0.0 **** 0.06
33194 H 84.34976510653826 -0.5453836478926632 128.92209819120734 H 0.0 **** 0.06
33195 H 85.1175269382569 1.006297205038095 128.5093723940953 H 0.0 **** 0.06
33196 C 63.52197021358957 136.12874208096713 58.507901926264026 C 0.0 **** -0.24
33197 H 62.43716376361088 136.03944676361778 58.456944516141334 H 0.0 **** 0.06
33198 H 63.78748182177583 137.13114493448683 58.84591302728589 H 0.0 **** 0.06
33199 H 63.947345225909075 135.953441488524 57.520150365769496 H 0.0 **** 0.06
33200 H 63.91396459544853 135.3930222004647 59.20956780464877 H 0.0 **** 0.06
33201 C 144.85612298804938 1.9762915447830096 106.98081480186967 C 0.0 **** -0.24
33202 H 144.09697955318535 2.6746966438298614 107.3331923401994 H 0.0 **** 0.06
33203 H 144.395594593559 1.0070995657059427 106.78707298946817 H 0.0 **** 0.06
33204 H 145.62921416591098 1.8649667904760747 107.74170061160875 H 0.0 **** 0.06
33205 H 145.3026052710975 2.3569906358973753 106.06302392182035 H 0.0 **** 0.06
33206 C 142.7860289226386 27.12559152403412 112.75286444192669 C 0.0 **** -0.24
33207 H 143.66528774299513 27.34571686810338 113.35840480071094 H 0.0 **** 0.06
33208 H 141.8933551195122 27.17839682709956 113.37566973296423 H 0.0 **** 0.06
33209 H 142.87712503975933 26.123702567822875 112.33195660368064 H 0.0 **** 0.06
33210 H 142.70961054881042 27.853675476486586 111.9446259990364 H 0.0 **** 0.06
33211 C 168.34627033617642 16.709335475619184 35.710167290090254 C 0.0 **** -0.24
33212 H 168.31698330782288 17.46576416700873 34.92550539875583 H 0.0 **** 0.06
33213 H 167.78065732155414 17.060641459839644 36.57359499675442 H 0.0 **** 0.06
33214 H 169.38145599555529 16.528613212608576 36.001978033805216 H 0.0 **** 0.06
33215 H 167.9061057519142 15.783269651834246 35.339291823782105 H 0.0 **** 0.06
33216 C 111.19578699577399 162.4060374157493 70.76067048277261 C 0.0 **** -0.24
33217 H 110.89775404734674 161.44966116980348 71.18986063959889 H 0.0 **** 0.06
33218 H 110.70714872581262 163.21629103352203 71.3036494222579 H 0.0 **** 0.06
33219 H 110.89926589760854 162.44100266311915 69.71191881726251 H 0.0 **** 0.06
33220 H 112.27706663509967 162.51776088878603 70.83710709217262 H 0.0 **** 0.06
33221 C 158.25617181345865 160.9770442464145 75.69766272598108 C 0.0 **** -0.24
33222 H 158.1000614792988 160.19803591949952 76.44394950398706 H 0.0 **** 0.06
33223 H 158.35128976927842 160.52094281230748 74.71267318329542 H 0.0 **** 0.06
33224 H 159.1652127982523 161.52891154923884 75.93343017846338 H 0.0 **** 0.06
33225 H 157.40565952009587 161.65846446751803 75.70186688436803 H 0.0 **** 0.06
33226 C 138.92329735221523 176.21102025431864 141.49200862490733 C 0.0 **** -0.24
33227 H 138.9557145531624 175.48863314272424 140.67606232572103 H 0.0 **** 0.06
33228 H 138.12689047910442 175.9388111680282 142.18517288193686 H 0.0 **** 0.06
33229 H 138.7315365362357 177.20539839187603 141.08901945790228 H 0.0 **** 0.06
33230 H 139.87873427101135 176.20858879068527 142.01684074154628 H 0.0 **** 0.06
33231 C 116.15433095117368 147.22417014981556 129.25478926130006 C 0.0 **** -0.24
33232 H 116.68366105856518 148.1689930748579 129.3827176366812 H 0.0 **** 0.06
33233 H 116.62300220294617 146.65194197979793 128.45379203467456 H 0.0 **** 0.06
33234 H 115.11420108731994 147.4232830868546 128.99849598083745 H 0.0 **** 0.06
33235 H 116.19838282003894 146.65504714446098 130.18253263232123 H 0.0 **** 0.06
33236 C 113.26362012506712 68.00221386963732 73.27993355407284 C 0.0 **** -0.24
33237 H 113.89782058320327 67.49955320116477 74.01110892901966 H 0.0 **** 0.06
33238 H 112.27376740816749 68.16209496548758 73.70688201257644 H 0.0 **** 0.06
33239 H 113.17915070706476 67.3823485132287 72.38663055305977 H 0.0 **** 0.06
33240 H 113.70585919004122 68.96299289218067 73.01530049243763 H 0.0 **** 0.06
33241 C 162.29018591015395 33.65366822502297 75.47359220899489 C 0.0 **** -0.24
33242 H 161.36159576248096 33.098566597117326 75.60313317251195 H 0.0 **** 0.06
33243 H 163.0621396216277 33.22300243753794 76.11101655744972 H 0.0 **** 0.06
33244 H 162.13161826314828 34.696568964226245 75.74751136801581 H 0.0 **** 0.06
33245 H 162.60522709212893 33.59540294388496 74.43054156993571 H 0.0 **** 0.06
33246 C 20.813476766374173 110.84913955676802 147.19774322166907 C 0.0 **** -0.24
33247 H 20.331367652483465 109.92269014622235 147.50999417618158 H 0.0 **** 0.06
33248 H 20.487482294461337 111.6641818772377 147.84532103812154 H 0.0 **** 0.06
33249 H 20.5379204670325 111.07231418245567 146.16639012581908 H 0.0 **** 0.06
33250 H 21.894782108928098 110.73800588681115 147.26903411174996 H 0.0 **** 0.06
33251 C 86.26365384387088 157.76317588019242 117.72811451447342 C 0.0 **** -0.24
33252 H 87.14152761842246 158.33994918837075 117.43866412897552 H 0.0 **** 0.06
33253 H 86.3528582356783 156.74718063454839 117.3427671189699 H 0.0 **** 0.06
33254 H 85.36965331363791 158.23188850124268 117.31748830951238 H 0.0 **** 0.06
33255 H 86.19163241018884 157.73338262409123 118.81572780045184 H 0.0 **** 0.06
33256 C 154.19153727586485 153.90770124645013 170.49768622726293 C 0.0 **** -0.24
33257 H 154.70964827948728 154.8662040691493 170.53965896184314 H 0.0 **** 0.06
33258 H 153.36179733574042 153.97524910701716 169.79413006067185 H 0.0 **** 0.06
33259 H 153.80931632113533 153.65912915518294 171.48730908420723 H 0.0 **** 0.06
33260 H 154.88492044326532 153.13318082814436 170.1698245653788 H 0.0 **** 0.06
33261 C 99.45475094544047 38.295581245600374 122.12010314942951 C 0.0 **** -0.24
33262 H 98.88967252784506 39.17967632055331 122.41458002894537 H 0.0 **** 0.06
33263 H 100.36072039799562 38.600785968359446 121.59588200602612 H 0.0 **** 0.06
33264 H 98.84372015922098 37.67768918335784 121.4613086692891 H 0.0 **** 0.06
33265 H 99.72272649067172 37.724708164977415 123.00881647878522 H 0.0 **** 0.06
33266 C 74.63195199647154 58.27815938786341 183.63068637114998 C 0.0 **** -0.24
33267 H 74.6824293984622 57.437559322042205 182.93895382652843 H 0.0 **** 0.06
33268 H 74.61827380998189 57.90643578703825 184.6550421806016 H 0.0 **** 0.06
33269 H 73.72416016699006 58.85071909187053 183.4399725872942 H 0.0 **** 0.06
33270 H 75.50215447059922 58.91876409792445 183.4874850322385 H 0.0 **** 0.06
33271 C 46.64811404611817 102.24613785100335 45.76052656176449 C 0.0 **** -0.24
33272 H 45.83600102198746 102.53786624835185 46.42651105338501 H 0.0 **** 0.06
33273 H 47.591479148452336 102.63465998138902 46.147181779823086 H 0.0 **** 0.06
33274 H 46.466705428083046 102.65501624687691 44.76610172528967 H 0.0 **** 0.06
33275 H 46.69892762523803 101.15898224757753 45.70313292568079 H 0.0 **** 0.06
33276 C 69.64498477446045 156.36124933086478 84.13111753365803 C 0.0 **** -0.24
33277 H 70.0868758500712 156.06725152939936 85.08324144193837 H 0.0 **** 0.06
33278 H 68.95337751872242 155.5883358123458 83.79736098257749 H 0.0 **** 0.06
33279 H 70.43360455221884 156.48929478430364 83.38896755154417 H 0.0 **** 0.06
33280 H 69.10693414450853 157.30159433277726 84.25460916226729 H 0.0 **** 0.06
33281 C 113.67423887066458 165.08199991594748 130.2734822655347 C 0.0 **** -0.24
33282 H 112.88780213719834 165.4798188395025 130.9131498960615 H 0.0 **** 0.06
33283 H 114.64746967791503 165.37440631523444 130.66964093860184 H 0.0 **** 0.06
33284 H 113.55894175870516 165.47857656239344 129.26463742690453 H 0.0 **** 0.06
33285 H 113.6048585189756 163.99440584585597 130.2455559798792 H 0.0 **** 0.06
33286 C 62.84828904476345 163.44238109331923 5.506121285250799 C 0.0 **** -0.24
33287 H 62.61083234651241 163.50948051445724 6.568105448079251 H 0.0 **** 0.06
33288 H 62.30203124293526 164.21323732877764 4.962895336162603 H 0.0 **** 0.06
33289 H 62.55991132938361 162.45996866299572 5.131747832835515 H 0.0 **** 0.06
33290 H 63.91901718098289 163.5859629991908 5.362908698368301 H 0.0 **** 0.06
33291 C 171.7995103300516 162.0925695535766 32.26341338639526 C 0.0 **** -0.24
33292 H 170.7533881681125 162.338210262221 32.08108559331794 H 0.0 **** 0.06
33293 H 172.4132386748933 162.9801078573398 32.104389236665725 H 0.0 **** 0.06
33294 H 172.11289421883913 161.30661988982027 31.576215431562787 H 0.0 **** 0.06
33295 H 171.9180785438881 161.74701124343252 33.29022758045332 H 0.0 **** 0.06
33296 C 129.96064725074382 146.09658722297996 52.057520781281255 C 0.0 **** -0.24
33297 H 129.08761002893885 146.02963365647503 51.40929430684872 H 0.0 **** 0.06
33298 H 130.40339621628624 145.1072386123011 52.17457228304181 H 0.0 **** 0.06
33299 H 129.65874638961657 146.47848471007143 53.033460623638405 H 0.0 **** 0.06
33300 H 130.69120686516993 146.7730431886385 51.61382230100128 H 0.0 **** 0.06
33301 C 62.390020761739805 168.79336890205704 160.2853670411163 C 0.0 **** -0.24
33302 H 63.14783576167284 168.9831132193147 159.52612277906158 H 0.0 **** 0.06
33303 H 61.427622481322416 169.17345664928183 159.94075385153442 H 0.0 **** 0.06
33304 H 62.668351206984624 169.29595573204315 161.2108949819365 H 0.0 **** 0.06
33305 H 62.31379340247999 167.72064496261876 160.4620364901125 H 0.0 **** 0.06
33306 C 132.1673478556491 16.19136968259089 60.37583036974587 C 0.0 **** -0.24
33307 H 132.5289517572648 17.1498169437859 60.747421291536455 H 0.0 **** 0.06
33308 H 132.3541381044957 16.12358087588715 59.30384274984445 H 0.0 **** 0.06
33309 H 131.09680487285925 16.10857624514248 60.563730169998976 H 0.0 **** 0.06
33310 H 132.68923191360489 15.382606234076881 60.887976924716 H 0.0 **** 0.06
33311 C 160.71940265028917 43.541750732419075 123.52579610122793 C 0.0 **** -0.24
33312 H 160.50833678933984 43.26157078306457 122.49388343225549 H 0.0 **** 0.06
33313 H 160.39275517652416 44.56756425409981 123.6982676222636 H 0.0 **** 0.06
33314 H 161.79134516427195 43.46583911606703 123.71023051955517 H 0.0 **** 0.06
33315 H 160.1871667922032 42.871865237385435 124.20080778058328 H 0.0 **** 0.06
33316 C 138.2385233272605 83.50766719597044 81.76323463509016 C 0.0 **** -0.24
33317 H 138.81384430650718 83.25329225005015 80.8729506770194 H 0.0 **** 0.06
33318 H 138.4006334109868 82.7496592108908 82.52975116196907 H 0.0 **** 0.06
33319 H 137.17876566326373 83.54835777092853 81.51055826910792 H 0.0 **** 0.06
33320 H 138.56059753125265 84.47862903977324 82.1384940771497 H 0.0 **** 0.06
33321 C 79.77480838177492 1.714786906598306 81.03089835867887 C 0.0 **** -0.24
33322 H 80.08031836153454 1.448214205262559 80.01948647826687 H 0.0 **** 0.06
33323 H 79.1207668760158 0.9378278376035496 81.42905627097645 H 0.0 **** 0.06
33324 H 79.24060863238552 2.663975935538417 81.01132429502705 H 0.0 **** 0.06
33325 H 80.65708924963714 1.806447960013827 81.66450477363257 H 0.0 **** 0.06
33326 C 107.74344249665334 172.15585148853177 117.99362649437148 C 0.0 **** -0.24
33327 H 108.11765154655292 171.41537654620083 118.7011855601458 H 0.0 **** 0.06
33328 H 107.83788203514995 171.7684982657123 116.97923307269679 H 0.0 **** 0.06
33329 H 108.32439623485435 173.0733395600161 118.08907157477933 H 0.0 **** 0.06
33330 H 106.69585720609383 172.36548429099827 118.20791949610378 H 0.0 **** 0.06
33331 C 85.00862836908581 116.68841997734994 109.55041883303373 C 0.0 **** -0.24
33332 H 84.84110986039795 115.63993218559416 109.30581049043975 H 0.0 **** 0.06
33333 H 85.98071809740303 116.7971121410395 110.03280764998233 H 0.0 **** 0.06
33334 H 84.22723696177731 117.03382460778126 110.22655598390917 H 0.0 **** 0.06
33335 H 84.98777711469693 117.28212950428748 108.63683820028986 H 0.0 **** 0.06
33336 C 119.87824315481559 132.89147146875365 112.24577648500834 C 0.0 **** -0.24
33337 H 120.35430367080467 131.97346033648648 112.59215393858706 H 0.0 **** 0.06
33338 H 120.64416056780648 133.63588685331263 112.02462121317264 H 0.0 **** 0.06
33339 H 119.21486033921919 133.2720074762991 113.02241729580889 H 0.0 **** 0.06
33340 H 119.30208077202398 132.68424701316752 111.34394817579967 H 0.0 **** 0.06
33341 C 121.63614879472986 141.53689372844167 6.6834483628935 C 0.0 **** -0.24
33342 H 122.25803953440636 140.68386973288193 6.412407170124709 H 0.0 **** 0.06
33343 H 120.65772871223417 141.4374203158875 6.215381593365777 H 0.0 **** 0.06
33344 H 122.11212993020236 142.45644386394235 6.340694942085975 H 0.0 **** 0.06
33345 H 121.52020979400577 141.5713285777025 7.767418745325614 H 0.0 **** 0.06
33346 C 126.39848517616544 74.1339809671922 57.864167974497036 C 0.0 **** -0.24
33347 H 125.91172972976936 73.5601126784403 57.075603021241875 H 0.0 **** 0.06
33348 H 125.85369325662491 75.06567909955157 58.02332440508172 H 0.0 **** 0.06
33349 H 127.42374480449264 74.35747694354649 57.57194962002933 H 0.0 **** 0.06
33350 H 126.40133543051998 73.55328903069557 58.786679284741865 H 0.0 **** 0.06
33351 C 5.099572327879358 157.94376950190778 38.938682640770026 C 0.0 **** -0.24
33352 H 5.020066273758935 156.92174306881938 39.30931470056245 H 0.0 **** 0.06
33353 H 4.966177345758119 157.94864620333036 37.857172426100476 H 0.0 **** 0.06
33354 H 6.082683427697823 158.3443681202421 39.18568197880066 H 0.0 **** 0.06
33355 H 4.329001623361741 158.55943492242253 39.40360334809861 H 0.0 **** 0.06
33356 C 179.77099056584427 10.301958164107447 98.81669263929462 C 0.0 **** -0.24
33357 H 180.0360228825358 11.329346675022634 98.56733129862181 H 0.0 **** 0.06
33358 H 180.65580471299165 9.776056098338529 99.17574738797703 H 0.0 **** 0.06
33359 H 179.3847358891838 9.801432944177947 97.92899664245175 H 0.0 **** 0.06
33360 H 179.007890589902 10.30292734744475 99.59451706140084 H 0.0 **** 0.06
33361 C 3.4636526832308334 139.4982272118196 147.75039462060442 C 0.0 **** -0.24
33362 H 3.122786579940282 140.06626477036116 146.88451067484556 H 0.0 **** 0.06
33363 H 4.190719538505874 138.75135478469798 147.42963651993446 H 0.0 **** 0.06
33364 H 2.6133734253120906 139.0002640925759 148.21588819401998 H 0.0 **** 0.06
33365 H 3.9280282771476607 140.173207748266 148.4691747964115 H 0.0 **** 0.06
33366 C 26.45963590859553 114.58723977438557 127.78941332669778 C 0.0 **** -0.24
33367 H 26.196430563099554 115.64182672432402 127.7062828253216 H 0.0 **** 0.06
33368 H 25.662511771297318 114.05331639675997 128.30530698176358 H 0.0 **** 0.06
33369 H 27.388673954768294 114.48781956432954 128.35155060163328 H 0.0 **** 0.06
33370 H 26.592517650203348 114.16738260165043 126.79195366370958 H 0.0 **** 0.06
33371 C 163.8103287833319 158.2297063180018 32.04097809877112 C 0.0 **** -0.24
33372 H 164.09606108683178 157.41235528212295 31.378943586475827 H 0.0 **** 0.06
33373 H 162.8738502068403 157.98179263944846 32.540946152623235 H 0.0 **** 0.06
33374 H 163.68202086756492 159.14149057471465 31.45752551770221 H 0.0 **** 0.06
33375 H 164.5910269127834 158.38143007068754 32.78695713253671 H 0.0 **** 0.06
33376 C 5.619107498389447 121.90545908319245 63.13657162487263 C 0.0 **** -0.24
33377 H 4.545812523252906 121.78125909905759 63.27695894144489 H 0.0 **** 0.06
33378 H 5.822960171133353 122.14234078540841 62.091420172997346 H 0.0 **** 0.06
33379 H 6.130423687716728 120.98176205263599 63.406589958241085 H 0.0 **** 0.06
33380 H 5.976462616951153 122.71807952415435 63.76963538093764 H 0.0 **** 0.06
33381 C 60.76946089546891 32.627133233088415 164.5394963413632 C 0.0 **** -0.24
33382 H 61.07464009486213 31.84253270370705 165.2318300959174 H 0.0 **** 0.06
33383 H 61.630864748661 32.95114903656014 163.95527760726074 H 0.0 **** 0.06
33384 H 60.37194714907521 33.47189753646042 165.10088695786996 H 0.0 **** 0.06
33385 H 60.00046202380406 32.241259738067995 163.8696360828751 H 0.0 **** 0.06
33386 C 26.25507502356757 142.25691729803094 107.02905489584602 C 0.0 **** -0.24
33387 H 26.486440846761113 141.24727491889433 107.36654927121667 H 0.0 **** 0.06
33388 H 25.19105625062555 142.328423747292 106.80011105911906 H 0.0 **** 0.06
33389 H 26.834993967428574 142.4826344274676 106.13453147941023 H 0.0 **** 0.06
33390 H 26.50685372940508 142.9691326322376 107.81481323221566 H 0.0 **** 0.06
33391 C 125.73578074838242 162.1579934052096 83.80278060772666 C 0.0 **** -0.24
33392 H 126.45128434564747 161.91292961192764 83.01793304296604 H 0.0 **** 0.06
33393 H 126.05143490144961 161.6972392519591 84.73916324586716 H 0.0 **** 0.06
33394 H 124.75040442590269 161.78303573782236 83.52551787637024 H 0.0 **** 0.06
33395 H 125.69076611589371 163.2400082815612 83.9268122771804 H 0.0 **** 0.06
33396 C 174.33035904312527 100.77120727005293 132.83472911765148 C 0.0 **** -0.24
33397 H 173.39313675270898 100.60021271703876 133.3630751894592 H 0.0 **** 0.06
33398 H 174.92254029603222 99.85539714347111 132.84069331159873 H 0.0 **** 0.06
33399 H 174.88619113079778 101.56690514377426 133.32918428188333 H 0.0 **** 0.06
33400 H 174.11909351844926 101.06066377929174 131.80573681965177 H 0.0 **** 0.06
33401 C 165.29477163074958 76.96780855704071 172.2348452657244 C 0.0 **** -0.24
33402 H 166.20944351037983 76.85223940066055 172.81651397839556 H 0.0 **** 0.06
33403 H 165.3789194959665 76.39758533548155 171.30993447675866 H 0.0 **** 0.06
33404 H 165.14530959460274 78.02205241953538 171.99899282598756 H 0.0 **** 0.06
33405 H 164.44761818882031 76.60106129663092 172.8134529288177 H 0.0 **** 0.06
33406 C 32.42641918290175 142.28416854019144 3.448939822328967 C 0.0 **** -0.24
33407 H 33.29568019340367 142.2243701030426 4.103286662641345 H 0.0 **** 0.06
33408 H 31.590153962900075 141.7562438079696 3.9086118280025772 H 0.0 **** 0.06
33409 H 32.662216225629265 141.8260770929386 2.4885621176246673 H 0.0 **** 0.06
33410 H 32.15629310034089 143.3296162336405 3.297320551935627 H 0.0 **** 0.06
33411 C 42.87661893668971 94.54483528257525 115.73329730549766 C 0.0 **** -0.24
33412 H 43.3878452275663 94.08351232950513 116.57751774204881 H 0.0 **** 0.06
33413 H 43.58660051771048 94.70527648722789 114.92208640064341 H 0.0 **** 0.06
33414 H 42.45612662066229 95.50212480230714 116.04341725432515 H 0.0 **** 0.06
33415 H 42.07524586134909 93.88980664512106 115.39180054709179 H 0.0 **** 0.06
33416 C 68.26679018313143 169.69793993360094 111.54222194287313 C 0.0 **** -0.24
33417 H 69.06191511545268 170.0202422225014 110.86963592681668 H 0.0 **** 0.06
33418 H 67.36060343303188 169.5033959719216 110.9675536795318 H 0.0 **** 0.06
33419 H 68.07101356454481 170.48208083605877 112.274818672629 H 0.0 **** 0.06
33420 H 68.57323901134674 168.7880006519421 112.05696260754253 H 0.0 **** 0.06
33421 C 14.568750287554167 1.3478787223470476 63.78149651949305 C 0.0 **** -0.24
33422 H 14.128754006733857 1.5466644381655783 62.80426631375384 H 0.0 **** 0.06
33423 H 13.838595857706686 0.840556876920175 64.41161587591598 H 0.0 **** 0.06
33424 H 14.858407148807594 2.2901230092533638 64.24730440326103 H 0.0 **** 0.06
33425 H 15.44827377254606 0.7151612650905008 63.661761708350184 H 0.0 **** 0.06
33426 C 89.7008218188778 127.2565752833424 130.46135226518436 C 0.0 **** -0.24
33427 H 89.63965192271716 128.04761372345894 131.2095513179301 H 0.0 **** 0.06
33428 H 90.09987242295834 127.66526141907882 129.53185849246978 H 0.0 **** 0.06
33429 H 88.70616376702266 126.84947338588556 130.28141129651306 H 0.0 **** 0.06
33430 H 90.35726632267868 126.46530613566567 130.82282716391444 H 0.0 **** 0.06
33431 C 54.057896665811455 17.438535015213574 173.9181631731622 C 0.0 **** -0.24
33432 H 53.84069174270404 17.42373308334942 172.8498648528592 H 0.0 **** 0.06
33433 H 53.254359001891984 16.937379570998075 174.45805465468027 H 0.0 **** 0.06
33434 H 54.13584733034281 18.47075859388312 174.25855930149467 H 0.0 **** 0.06
33435 H 54.99888269648582 16.921461755822577 174.1041520993114 H 0.0 **** 0.06
33436 C 140.77447574400475 85.04942643502079 165.69737651643402 C 0.0 **** -0.24
33437 H 140.79806689043596 85.37541364565328 164.6576250294313 H 0.0 **** 0.06
33438 H 141.7800427640355 85.10003942177809 166.1160048463742 H 0.0 **** 0.06
33439 H 140.4100994542298 84.02359358951844 165.7485159950934 H 0.0 **** 0.06
33440 H 140.11092703932752 85.70018927520243 166.26698884879102 H 0.0 **** 0.06
33441 C 34.036773546345955 88.6015230454537 170.95201122651216 C 0.0 **** -0.24
33442 H 34.896721473037246 88.10152805712166 170.50521153561814 H 0.0 **** 0.06
33443 H 33.85113510460832 88.18669900641645 171.94329058942418 H 0.0 **** 0.06
33444 H 33.16043632539561 88.44680595614624 170.32261543750093 H 0.0 **** 0.06
33445 H 34.24043638897297 89.66860880527672 171.03577737622436 H 0.0 **** 0.06
33446 C 120.03523210135437 93.1327162788999 77.28152191527886 C 0.0 **** -0.24
33447 H 121.03480464178965 93.52753948615718 77.46465505309324 H 0.0 **** 0.06
33448 H 119.34699860775255 93.52673633659016 78.03005531016434 H 0.0 **** 0.06
33449 H 120.05688263586534 92.04495868788179 77.34349793105712 H 0.0 **** 0.06
33450 H 119.70321301913383 93.43364507346946 76.28786626367842 H 0.0 **** 0.06
33451 C 29.40505407249759 11.156316898168598 166.48618184585933 C 0.0 **** -0.24
33452 H 28.34600591339455 11.412912840327344 166.45351853290936 H 0.0 **** 0.06
33453 H 29.946492767681804 11.755672286122298 165.7536256062217 H 0.0 **** 0.06
33454 H 29.53010288207531 10.098523914922808 166.25563867542098 H 0.0 **** 0.06
33455 H 29.79680014076851 11.36037325329665 167.48350397336424 H 0.0 **** 0.06
33456 C 51.30233727549984 151.0468525006795 105.80094662928211 C 0.0 **** -0.24
33457 H 51.51265724229569 150.6297572379898 104.81601189971464 H 0.0 **** 0.06
33458 H 52.083332323365596 150.74478216257938 106.49853576520472 H 0.0 **** 0.06
33459 H 50.33836721502598 150.6788798002828 106.15227578664182 H 0.0 **** 0.06
33460 H 51.27357488553116 152.13475466043087 105.73632473176401 H 0.0 **** 0.06
33461 C 183.16979973185386 123.97266437233071 130.35357768951428 C 0.0 **** -0.24
33462 H 182.71322441166978 124.23657096109753 129.39985517087968 H 0.0 **** 0.06
33463 H 184.0329154245115 124.61494664038372 130.5329967286694 H 0.0 **** 0.06
33464 H 183.48998086917868 122.93098458818673 130.32745041244465 H 0.0 **** 0.06
33465 H 182.44213567663638 124.10920665263143 131.15408790977784 H 0.0 **** 0.06
33466 C 146.9009547687692 169.4153781556783 184.83872968320918 C 0.0 **** -0.24
33467 H 146.10925268561712 170.16072036711316 184.90191289735017 H 0.0 **** 0.06
33468 H 147.05745842711798 169.13818104249043 183.79655709068763 H 0.0 **** 0.06
33469 H 146.61536356628994 168.53249774795398 185.41111436840177 H 0.0 **** 0.06
33470 H 147.82302900999312 169.82931121977765 185.2469794578394 H 0.0 **** 0.06
33471 C 129.2538927189488 38.81438973769173 4.028389383464713 C 0.0 **** -0.24
33472 H 128.2559288088304 38.50481910929986 3.715684316100237 H 0.0 **** 0.06
33473 H 129.61580459076134 38.140530814885494 4.8056128636357585 H 0.0 **** 0.06
33474 H 129.21228734223223 39.831139969847925 4.4185858890095915 H 0.0 **** 0.06
33475 H 129.92918353046292 38.78095958377287 3.1742968410409276 H 0.0 **** 0.06
33476 C 7.316526928237813 74.00434017814734 27.974709264966634 C 0.0 **** -0.24
33477 H 7.27060232313341 74.94972463873535 28.515332531525544 H 0.0 **** 0.06
33478 H 7.350495887424245 73.18047276393986 28.688251821775097 H 0.0 **** 0.06
33479 H 8.211701841947132 73.9846664204909 27.353763083314533 H 0.0 **** 0.06
33480 H 6.4336393813223935 73.90334900473948 27.34434690923338 H 0.0 **** 0.06
33481 C 141.47259434981385 120.13734056407746 158.14376309894612 C 0.0 **** -0.24
33482 H 140.59914884017184 119.9780779504414 158.77574942343074 H 0.0 **** 0.06
33483 H 141.1556486410156 120.52790047792043 157.1770538768061 H 0.0 **** 0.06
33484 H 141.99436272375561 119.19106451280847 158.0012332447571 H 0.0 **** 0.06
33485 H 142.1415504994115 120.85336011317087 158.6229666892625 H 0.0 **** 0.06
33486 C 143.03599442360425 184.49769465338915 43.711552048625094 C 0.0 **** -0.24
33487 H 142.08782267192413 184.8611832246129 43.31382754386891 H 0.0 **** 0.06
33488 H 143.34753322094096 185.1303736437659 44.542652665431035 H 0.0 **** 0.06
33489 H 143.793046017716 184.52880304173226 42.9271532044491 H 0.0 **** 0.06
33490 H 142.91446379716373 183.47239127700107 44.05959605867338 H 0.0 **** 0.06
33491 C 156.57874893293217 42.304567487858606 47.36042573547114 C 0.0 **** -0.24
33492 H 157.3762897950157 41.56713220537637 47.44826723039975 H 0.0 **** 0.06
33493 H 155.64538495847276 41.80223552527633 47.10530485061415 H 0.0 **** 0.06
33494 H 156.83182505929855 43.020677655591726 46.57792072482765 H 0.0 **** 0.06
33495 H 156.46248015936254 42.828371788177776 48.308475288774204 H 0.0 **** 0.06
33496 C 125.53238878463254 16.074720399758462 119.58253329828648 C 0.0 **** -0.24
33497 H 125.69729242037546 15.014622195626771 119.39168012163486 H 0.0 **** 0.06
33498 H 126.4567948420062 16.624299505226986 119.40260377926558 H 0.0 **** 0.06
33499 H 125.22236138552599 16.213850730981505 120.61841511414264 H 0.0 **** 0.06
33500 H 124.75310649062253 16.446109167198756 118.91743417810278 H 0.0 **** 0.06
33501 C 63.921648150271835 183.32774954790833 11.530137309135398 C 0.0 **** -0.24
33502 H 64.09147946414214 184.28642444088274 12.020392488911796 H 0.0 **** 0.06
33503 H 63.36862970167648 182.66894195075344 12.199813734087485 H 0.0 **** 0.06
33504 H 64.88063310595523 182.87220714909307 11.282887747249788 H 0.0 **** 0.06
33505 H 63.34759352943553 183.48377946117546 10.616100464985834 H 0.0 **** 0.06
33506 C 98.81951393694186 143.95787740903364 58.3410822655335 C 0.0 **** -0.24
33507 H 99.60423372413806 144.60225705068132 57.94693501736488 H 0.0 **** 0.06
33508 H 97.84674507245307 144.41779092264295 58.16243261012862 H 0.0 **** 0.06
33509 H 98.96541693306659 143.82107832705273 59.41305274802386 H 0.0 **** 0.06
33510 H 98.85990976070735 142.98924437640446 57.84318912361533 H 0.0 **** 0.06
33511 C 74.60923236757392 147.9756009368742 46.07573757273104 C 0.0 **** -0.24
33512 H 73.78927108852218 147.86180940998347 45.36619661683835 H 0.0 **** 0.06
33513 H 75.15474123389336 148.89392903151204 45.85508176044526 H 0.0 **** 0.06
33514 H 75.28389868098651 147.1232382900365 45.991555247488336 H 0.0 **** 0.06
33515 H 74.20914800305658 148.024642504848 47.08824425307478 H 0.0 **** 0.06
33516 C 33.18077805510745 42.13138168655017 99.77513837983251 C 0.0 **** -0.24
33517 H 32.245297411841534 41.940256638566765 99.24986651496901 H 0.0 **** 0.06
33518 H 33.562220468782016 43.11233358339105 99.49241870540966 H 0.0 **** 0.06
33519 H 33.91030132500816 41.36695211328929 99.50773309110478 H 0.0 **** 0.06
33520 H 33.0052930147981 42.10598441095334 100.85053520784662 H 0.0 **** 0.06
33521 C 82.59061759105423 65.69061096106554 177.8159345210631 C 0.0 **** -0.24
33522 H 83.00299399610029 66.52182689466542 178.38729178122512 H 0.0 **** 0.06
33523 H 81.50660026847936 65.7912276796443 177.7589249380842 H 0.0 **** 0.06
33524 H 82.84392151176617 64.75123719297278 178.3061726076736 H 0.0 **** 0.06
33525 H 83.01001630408491 65.69895070867454 176.80955012732636 H 0.0 **** 0.06
33526 C 32.97049459318019 4.86326224432878 110.29227540278309 C 0.0 **** -0.24
33527 H 33.1067504075539 3.791688364341667 110.43924868024631 H 0.0 **** 0.06
33528 H 32.43624552861924 5.2813295427238245 111.14591880268934 H 0.0 **** 0.06
33529 H 32.394944944027884 5.035522850258815 109.3830090841498 H 0.0 **** 0.06
33530 H 33.94465267847261 5.343529379543213 110.20283908197688 H 0.0 **** 0.06
33531 C 86.81612907189287 132.86280053850356 75.16228875707043 C 0.0 **** -0.24
33532 H 86.93070351093326 133.8113135510378 74.63814744786481 H 0.0 **** 0.06
33533 H 86.6235630875886 133.05163974966632 76.21834768287675 H 0.0 **** 0.06
33534 H 87.73045134225919 132.27823088042152 75.0592379466487 H 0.0 **** 0.06
33535 H 85.98036717724437 132.3091979998507 74.73335791303714 H 0.0 **** 0.06
33536 C 42.70595695401363 166.63583580936327 13.848594428515469 C 0.0 **** -0.24
33537 H 43.32965097556399 167.52011690784732 13.979040072907821 H 0.0 **** 0.06
33538 H 41.655346481648394 166.91755655850173 13.93310757656127 H 0.0 **** 0.06
33539 H 42.947895012217884 165.90286603296994 14.617973812661774 H 0.0 **** 0.06
33540 H 42.88874422219237 166.20493730305628 12.865060690615337 H 0.0 **** 0.06
33541 C 115.6408314649217 10.111310800944466 32.98100226572362 C 0.0 **** -0.24
33542 H 115.41366823338304 10.369592585808888 34.01501132461726 H 0.0 **** 0.06
33543 H 116.72177026148124 10.076682552472349 32.84366845608497 H 0.0 **** 0.06
33544 H 115.21387470837958 10.86316164349973 32.316915212913784 H 0.0 **** 0.06
33545 H 115.21366358759686 9.135924933279895 32.74672168038646 H 0.0 **** 0.06
33546 C 85.62748783842285 73.10070961472617 16.035630718129887 C 0.0 **** -0.24
33547 H 85.9693387305757 73.89375389878364 15.36954804493584 H 0.0 **** 0.06
33548 H 84.57159198812802 72.90230141566848 15.851409367581553 H 0.0 **** 0.06
33549 H 85.76383278402766 73.41353661468851 17.070479822525165 H 0.0 **** 0.06
33550 H 86.20600670261713 72.19665969155173 15.849789429706014 H 0.0 **** 0.06
33551 C 34.581550097911645 95.23650961403003 168.09108633137836 C 0.0 **** -0.24
33552 H 34.50836986812362 94.17254539138462 167.86647969026347 H 0.0 **** 0.06
33553 H 34.47523948478354 95.38825089575262 169.1653079121343 H 0.0 **** 0.06
33554 H 33.789518637069364 95.7726169696622 167.56876323428108 H 0.0 **** 0.06
33555 H 35.550654717829644 95.6110219169097 167.76455902319915 H 0.0 **** 0.06
33556 C 71.99681626575592 89.3635012421746 4.691467764832083 C 0.0 **** -0.24
33557 H 72.05288460569378 88.27526969965788 4.659221486128786 H 0.0 **** 0.06
33558 H 72.7791995162164 89.7476466079525 5.346259456142093 H 0.0 **** 0.06
33559 H 71.02214331021584 89.66638826800494 5.0735363878781925 H 0.0 **** 0.06
33560 H 72.13436630637909 89.76431448456532 3.687146552523842 H 0.0 **** 0.06
33561 C 30.202145593126957 79.10182644427407 78.65677261232611 C 0.0 **** -0.24
33562 H 29.375036570416555 79.8074394399547 78.73261665910412 H 0.0 **** 0.06
33563 H 31.104571746243565 79.5544675652789 79.06658158573026 H 0.0 **** 0.06
33564 H 30.365776882235096 78.84605078079971 77.61026701925141 H 0.0 **** 0.06
33565 H 29.961017528261408 78.1989330043918 79.21790277445022 H 0.0 **** 0.06
33566 C 20.82508659333564 58.413097469820045 33.46096993624161 C 0.0 **** -0.24
33567 H 20.712404688338665 57.34477413665036 33.27462771621194 H 0.0 **** 0.06
33568 H 21.175869902545685 58.90466297113974 32.554256222154606 H 0.0 **** 0.06
33569 H 21.54789162257339 58.56714209444716 34.26223363127815 H 0.0 **** 0.06
33570 H 19.862738866574944 58.833515280440565 33.75439130858274 H 0.0 **** 0.06
33571 C 69.74352300316491 182.73099164966405 128.85162946089423 C 0.0 **** -0.24
33572 H 68.76113789919731 183.12654039971264 129.10983104815222 H 0.0 **** 0.06
33573 H 70.48668293447156 183.1247486946519 129.54530595576352 H 0.0 **** 0.06
33574 H 69.99927289751412 183.0302514755482 127.83463440703112 H 0.0 **** 0.06
33575 H 69.72536453465182 181.64357918430719 128.91678110853564 H 0.0 **** 0.06
33576 C 61.247206012968604 141.6052966918404 153.0727634556061 C 0.0 **** -0.24
33577 H 60.75560528674396 142.54812840596168 153.31230561287947 H 0.0 **** 0.06
33578 H 61.50535711539345 141.08574531995976 153.9960915492091 H 0.0 **** 0.06
33579 H 62.152613253527676 141.80367680548028 152.50087677560668 H 0.0 **** 0.06
33580 H 60.57301615528479 140.98431640165995 152.48252461512567 H 0.0 **** 0.06
33581 C 56.70568486473577 33.677729732718035 179.589105201534 C 0.0 **** -0.24
33582 H 56.2652175410753 34.64934641457475 179.36439887217335 H 0.0 **** 0.06
33583 H 56.54041113734179 33.000985416834624 178.74945995289852 H 0.0 **** 0.06
33584 H 56.23889747389728 33.266220447957835 180.4845632003192 H 0.0 **** 0.06
33585 H 57.77590575412542 33.793544865389265 179.75800294179066 H 0.0 **** 0.06
33586 C 112.93509985220238 59.011584078606006 16.40800066558043 C 0.0 **** -0.24
33587 H 112.69019268113253 58.556286151254824 15.447705569656193 H 0.0 **** 0.06
33588 H 112.12142323003268 58.831370616489096 17.111671657810575 H 0.0 **** 0.06
33589 H 113.07177561196941 60.08474679457197 16.277123357452666 H 0.0 **** 0.06
33590 H 113.85415740416771 58.5718356425528 16.794286662781047 H 0.0 **** 0.06
33591 C 139.94153175609114 71.8053968939719 175.63718516416026 C 0.0 **** -0.24
33592 H 140.6555423260341 71.70116672359427 174.82125422394375 H 0.0 **** 0.06
33593 H 138.9410471945069 71.56663681000295 175.27717458829105 H 0.0 **** 0.06
33594 H 139.9604851745828 72.83007934070585 176.0081380054812 H 0.0 **** 0.06
33595 H 140.2105829621595 71.12299709042142 176.44395052055074 H 0.0 **** 0.06
33596 C 51.773026985570226 112.61098716221903 171.78403543083118 C 0.0 **** -0.24
33597 H 51.21120150003753 112.28572653766906 170.90827517798286 H 0.0 **** 0.06
33598 H 51.626961169310036 111.89589428808728 172.5948130638079 H 0.0 **** 0.06
33599 H 51.419295437289975 113.59330779685587 172.09747845800538 H 0.0 **** 0.06
33600 H 52.8320080914464 112.66760122831352 171.53548324983967 H 0.0 **** 0.06
33601 C 102.09084490540977 169.05014366549136 84.51843622765227 C 0.0 **** -0.24
33602 H 103.0764716285803 169.51223879012844 84.56554673144706 H 0.0 **** 0.06
33603 H 102.13485026465429 168.05387962587753 84.95865873867496 H 0.0 **** 0.06
33604 H 101.7752886533039 168.97392748696677 83.47737391629346 H 0.0 **** 0.06
33605 H 101.37696559412615 169.66111424598932 85.07054729695528 H 0.0 **** 0.06
33606 C 148.6416672285609 128.0441743020085 72.21540461689517 C 0.0 **** -0.24
33607 H 149.12984420582643 128.78639243447907 71.58276026255953 H 0.0 **** 0.06
33608 H 148.79538462353358 128.30408105688906 73.2637875900889 H 0.0 **** 0.06
33609 H 149.06840632839464 127.06189036828977 72.01812480745787 H 0.0 **** 0.06
33610 H 147.57356298576576 128.02797213727638 71.99763825077378 H 0.0 **** 0.06
33611 C 2.3599826585489154 128.6138711540878 61.480890956955506 C 0.0 **** -0.24
33612 H 1.9382748844467983 127.67548437813508 61.12128121582505 H 0.0 **** 0.06
33613 H 3.4303701488273077 128.6336382894538 61.27425537932973 H 0.0 **** 0.06
33614 H 2.1945894989794965 128.6985520685701 62.554660296241124 H 0.0 **** 0.06
33615 H 1.876442467082569 129.44833351703045 60.97120786315395 H 0.0 **** 0.06
33616 C 60.63619719908462 17.410557612822288 168.1257301484004 C 0.0 **** -0.24
33617 H 59.69814378585829 17.967174036428617 168.12513410957948 H 0.0 **** 0.06
33618 H 61.4724302733261 18.108287785407555 168.07467889681809 H 0.0 **** 0.06
33619 H 60.66353769181504 16.74506497747194 167.2630393538076 H 0.0 **** 0.06
33620 H 60.70825291616856 16.82302319690544 169.04068677739502 H 0.0 **** 0.06
33621 C 130.2437816100969 10.978076047038932 28.149822073842728 C 0.0 **** -0.24
33622 H 130.73280497224852 11.500773124814785 28.971612356898873 H 0.0 **** 0.06
33623 H 130.77630463422923 10.049929203288201 27.94201439502507 H 0.0 **** 0.06
33624 H 130.252522831411 11.609808015165328 27.261157517272835 H 0.0 **** 0.06
33625 H 129.21263183587035 10.752874196120445 28.42480329085288 H 0.0 **** 0.06
33626 C 161.83537867905528 63.434249643961365 14.582699102204437 C 0.0 **** -0.24
33627 H 162.48602727782736 62.604498622553535 14.860859188898708 H 0.0 **** 0.06
33628 H 162.3116770043611 64.02061725590697 13.79711378824782 H 0.0 **** 0.06
33629 H 161.6615693420619 64.0660364768702 15.454024005416912 H 0.0 **** 0.06
33630 H 160.88428389070944 63.04386125176835 14.221225785337111 H 0.0 **** 0.06
33631 C 148.60165372814876 155.6152789002449 50.357730627909405 C 0.0 **** -0.24
33632 H 147.69882904194827 155.68377859847254 50.9644263792361 H 0.0 **** 0.06
33633 H 148.32683221002506 155.521032013569 49.30720646422492 H 0.0 **** 0.06
33634 H 149.17934557542713 154.74224719650925 50.66353149418268 H 0.0 **** 0.06
33635 H 149.20185131123222 156.51471751901 50.49646924828471 H 0.0 **** 0.06
33636 C 78.14042207646044 174.59840275284347 125.57133265634248 C 0.0 **** -0.24
33637 H 78.83269413193186 173.75662778228087 125.59381974236332 H 0.0 **** 0.06
33638 H 77.13491666162302 174.24808256275173 125.80630076046124 H 0.0 **** 0.06
33639 H 78.14730314543083 175.04758962876113 124.5775141623747 H 0.0 **** 0.06
33640 H 78.448466342123 175.3415181883203 126.30738874296499 H 0.0 **** 0.06
33641 C 92.17974585308058 114.10615732802147 29.643573884934497 C 0.0 **** -0.24
33642 H 93.02525305426668 113.43709790828295 29.485436556342066 H 0.0 **** 0.06
33643 H 92.43331652300107 115.10251583549866 29.281094904856715 H 0.0 **** 0.06
33644 H 91.94911019891127 114.15513087389122 30.707816410187363 H 0.0 **** 0.06
33645 H 91.31280442448748 113.7302358543367 29.10073785516441 H 0.0 **** 0.06
33646 C 132.3493477969348 56.56159411063925 66.47583585189953 C 0.0 **** -0.24
33647 H 133.21400906892194 56.69479865396096 67.12568259324608 H 0.0 **** 0.06
33648 H 132.65688999363203 56.053795361249456 65.56118093683145 H 0.0 **** 0.06
33649 H 131.92709793732212 57.535657535162244 66.22683808321223 H 0.0 **** 0.06
33650 H 131.5977071429187 55.96071865186383 66.99006190273697 H 0.0 **** 0.06
33651 C 37.71563036654834 41.97869208822786 144.92830233521366 C 0.0 **** -0.24
33652 H 37.52052250708789 42.19434295594303 145.97816421043171 H 0.0 **** 0.06
33653 H 37.30088363810238 42.774792517622274 144.31021446614025 H 0.0 **** 0.06
33654 H 37.250186094400604 41.03049443933833 144.65989182318532 H 0.0 **** 0.06
33655 H 38.79201822728626 41.91425487849176 144.76475595865344 H 0.0 **** 0.06
33656 C 67.61288331486423 75.35375908165378 7.1409073487695025 C 0.0 **** -0.24
33657 H 68.17643063811545 75.42815082489625 8.07094425442287 H 0.0 **** 0.06
33658 H 68.3039165104882 75.21424868123614 6.308786344106522 H 0.0 **** 0.06
33659 H 67.04099674480915 76.26885269917591 6.98901011021502 H 0.0 **** 0.06
33660 H 66.9330916323446 74.50418589683585 7.195533394934785 H 0.0 **** 0.06
33661 C 63.21794711805133 137.68462370899726 168.88810355944514 C 0.0 **** -0.24
33662 H 64.04457548263996 138.12459039403825 168.3302646711215 H 0.0 **** 0.06
33663 H 62.278178129224216 137.91429471776098 168.38441627948228 H 0.0 **** 0.06
33664 H 63.20012489493752 138.0964735595893 169.8967920220358 H 0.0 **** 0.06
33665 H 63.34956707117941 136.60347800729755 168.93860641956564 H 0.0 **** 0.06
33666 C 72.24977255676211 62.18339119565819 175.999583400726 C 0.0 **** -0.24
33667 H 73.20014758722844 62.517422640805265 176.41686709132807 H 0.0 **** 0.06
33668 H 72.1385055620971 62.577172153392155 174.98886900074598 H 0.0 **** 0.06
33669 H 71.43216525970605 62.54571756254677 176.62307380544277 H 0.0 **** 0.06
33670 H 72.2294642187776 61.093891676621595 175.97060519189748 H 0.0 **** 0.06
33671 C 61.543929711245525 53.05560918022647 132.9716000298344 C 0.0 **** -0.24
33672 H 60.82010896168161 53.85776639312891 133.11115883662 H 0.0 **** 0.06
33673 H 61.01696279346045 52.124839456430195 132.75954821057599 H 0.0 **** 0.06
33674 H 62.1362092179526 52.93943518349073 133.87960606949395 H 0.0 **** 0.06
33675 H 62.20148235520038 53.30051883967623 132.13810490875665 H 0.0 **** 0.06
33676 C 24.40216674574009 6.514046455131279 142.87676260594316 C 0.0 **** -0.24
33677 H 23.642017718819602 5.818581672685127 142.52278870270152 H 0.0 **** 0.06
33678 H 24.64083984467902 7.22455812068813 142.08393239444865 H 0.0 **** 0.06
33679 H 25.30016024183209 5.961198418981439 143.1527356035445 H 0.0 **** 0.06
33680 H 24.02534784127903 7.052758845263838 143.74655502543504 H 0.0 **** 0.06
33681 C 9.80115901467272 15.18260114998472 136.17949640644338 C 0.0 **** -0.24
33682 H 9.279478589332427 14.653784341751589 136.97722423094456 H 0.0 **** 0.06
33683 H 10.34047711663564 16.032360227137076 136.59986635964162 H 0.0 **** 0.06
33684 H 9.077654731103252 15.536929788489886 135.44565983300765 H 0.0 **** 0.06
33685 H 10.507381707581601 14.506918660149381 135.69740405585873 H 0.0 **** 0.06
33686 C 63.111926965540775 97.44415557035565 160.4019876736546 C 0.0 **** -0.24
33687 H 63.73689026747864 97.44747786006648 159.50841438589197 H 0.0 **** 0.06
33688 H 62.29414544800041 96.73523877289635 160.27040598628903 H 0.0 **** 0.06
33689 H 62.706247127820404 98.44263945881978 160.56388933662436 H 0.0 **** 0.06
33690 H 63.712930372441065 97.15134254403795 161.2635924725758 H 0.0 **** 0.06
33691 C 168.03931349282712 52.49660063898051 81.75765843594228 C 0.0 **** -0.24
33692 H 169.04093652466656 52.08679801083264 81.62620699898825 H 0.0 **** 0.06
33693 H 167.55461997966276 52.589663172966766 80.78586477314326 H 0.0 **** 0.06
33694 H 168.1081808171625 53.47962062888894 82.22562360852471 H 0.0 **** 0.06
33695 H 167.45519320905692 51.83203632557192 82.39343442222622 H 0.0 **** 0.06
33696 C 170.66854788043878 137.91188144402673 25.039062144226477 C 0.0 **** -0.24
33697 H 171.55376726975018 138.54020228777267 24.934975923672653 H 0.0 **** 0.06
33698 H 169.7988749470838 138.44290225313318 24.651324776723044 H 0.0 **** 0.06
33699 H 170.51271621747375 137.6785530701722 26.092164569113294 H 0.0 **** 0.06
33700 H 170.81109811547967 136.98784145793627 24.478771239715627 H 0.0 **** 0.06
33701 C 162.18158694351615 7.088070827899124 36.250193388627636 C 0.0 **** -0.24
33702 H 163.1891105005668 6.839486226465148 36.581411298922475 H 0.0 **** 0.06
33703 H 161.8797456161986 6.401306166880062 35.45897818821648 H 0.0 **** 0.06
33704 H 162.16548305793623 8.109892192986784 35.87129878333343 H 0.0 **** 0.06
33705 H 161.49160767245462 7.000783132419407 37.089502525742915 H 0.0 **** 0.06
33706 C 182.09530428357846 116.58210234500753 67.26860837258558 C 0.0 **** -0.24
33707 H 181.6223566857023 116.23937081084897 68.18910391148597 H 0.0 **** 0.06
33708 H 182.86065410966913 115.86745220579259 66.96601097641745 H 0.0 **** 0.06
33709 H 182.55387505924375 117.55609938903491 67.43718460814016 H 0.0 **** 0.06
33710 H 181.34269997495562 116.6648796969403 66.48385742322638 H 0.0 **** 0.06
33711 C 18.48310205672911 62.184829784645444 65.99446557877746 C 0.0 **** -0.24
33712 H 17.59769517818964 61.95724500048203 65.40005476758863 H 0.0 **** 0.06
33713 H 18.49335595592484 61.55842740104822 66.88614111475269 H 0.0 **** 0.06
33714 H 18.464051684272704 63.23481163553555 66.28653331061946 H 0.0 **** 0.06
33715 H 19.37763713323136 61.989348817882785 65.40187331754116 H 0.0 **** 0.06
33716 C 116.40553303056713 18.52106551498909 134.7041825858555 C 0.0 **** -0.24
33717 H 117.1246380502674 17.91979893415504 134.14838692304113 H 0.0 **** 0.06
33718 H 115.67154823608156 17.867327486145058 135.17362931810771 H 0.0 **** 0.06
33719 H 115.90041648825492 19.204886464411373 134.0219754673958 H 0.0 **** 0.06
33720 H 116.92684952604422 19.093727041841106 135.47129877805833 H 0.0 **** 0.06
33721 C 30.193764809382344 78.80106643067973 37.76351162162875 C 0.0 **** -0.24
33722 H 31.001736739003007 78.70513322331135 37.03915086223981 H 0.0 **** 0.06
33723 H 30.609498481275352 78.81071773915124 38.77131058049447 H 0.0 **** 0.06
33724 H 29.510694833803484 77.95720887768545 37.66024869208479 H 0.0 **** 0.06
33725 H 29.653722799096442 79.72992228337549 37.583342908911305 H 0.0 **** 0.06
33726 C 57.35371579717473 93.35575182928521 23.22250617185378 C 0.0 **** -0.24
33727 H 56.29620662493488 93.54604572361235 23.03725238302644 H 0.0 **** 0.06
33728 H 57.460464719957926 92.7318780869053 24.10920034297078 H 0.0 **** 0.06
33729 H 57.87118820039662 94.30250876630153 23.37909158230096 H 0.0 **** 0.06
33730 H 57.785986706536676 92.84390212853647 22.36299579045405 H 0.0 **** 0.06
33731 C 41.11043211468558 178.09497842639038 79.97254002162119 C 0.0 **** -0.24
33732 H 40.147664244518154 177.62699440279638 79.76407089465744 H 0.0 **** 0.06
33733 H 41.73340211375478 177.403991596283 80.54033658754723 H 0.0 **** 0.06
33734 H 40.95497506982832 179.0046985628142 80.55233027608641 H 0.0 **** 0.06
33735 H 41.604240106456416 178.34161022377518 79.03239865043658 H 0.0 **** 0.06
33736 C 33.62522598234243 17.544442760776747 8.133579204761077 C 0.0 **** -0.24
33737 H 34.3883081240902 18.010003367989214 7.510203461152571 H 0.0 **** 0.06
33738 H 33.649066950960105 17.988779349201423 9.129395957979284 H 0.0 **** 0.06
33739 H 33.82048706795655 16.47370409301635 8.208380467875315 H 0.0 **** 0.06
33740 H 32.6440676698322 17.704102577859487 7.687934235404555 H 0.0 **** 0.06
33741 C 93.36151592373521 30.38802688636528 21.229125699222422 C 0.0 **** -0.24
33742 H 92.42317934253741 29.840623635812904 21.30563355784173 H 0.0 **** 0.06
33743 H 93.15313084561517 31.449978174425723 21.099798675775702 H 0.0 **** 0.06
33744 H 93.92703242375823 30.020861315399145 20.37294471127185 H 0.0 **** 0.06
33745 H 93.9432516374088 30.240049891481647 22.13929422588396 H 0.0 **** 0.06
33746 C 120.26891867678277 132.30006548388354 36.0258203743968 C 0.0 **** -0.24
33747 H 120.5413049946073 133.1001674010044 35.338560638750465 H 0.0 **** 0.06
33748 H 119.77942756193538 132.72504341166035 36.902244117887335 H 0.0 **** 0.06
33749 H 121.16754101654304 131.76426965855825 36.334326660598094 H 0.0 **** 0.06
33750 H 119.58774981931928 131.6095074732641 35.52764469453729 H 0.0 **** 0.06
33751 C 59.7378804270562 44.30362698623425 14.666403558417812 C 0.0 **** -0.24
33752 H 59.80151947149537 43.23718445068897 14.88392773540005 H 0.0 **** 0.06
33753 H 59.84213489199459 44.86899001667524 15.592322565058453 H 0.0 **** 0.06
33754 H 58.771744533882014 44.52394897116183 14.212150295193709 H 0.0 **** 0.06
33755 H 60.5349116804468 44.5829973048416 13.977993980126769 H 0.0 **** 0.06
33756 C 49.14849394546553 10.555891805907208 175.43804494075755 C 0.0 **** -0.24
33757 H 49.85054953891654 10.016627605887322 174.8028328448617 H 0.0 **** 0.06
33758 H 49.6868615873811 11.302646669067514 176.02257196811732 H 0.0 **** 0.06
33759 H 48.65426066075564 9.854463298801818 176.11061529820105 H 0.0 **** 0.06
33760 H 48.4014196772406 11.050268287671287 174.81631966445931 H 0.0 **** 0.06
33761 C 88.15255682306874 15.588745410436488 141.11273231957205 C 0.0 **** -0.24
33762 H 87.41750090987158 14.90357187466941 140.68976138945345 H 0.0 **** 0.06
33763 H 88.44084257528031 15.244250216763895 142.1064167648699 H 0.0 **** 0.06
33764 H 87.71920292766829 16.586476911376423 141.1852831783354 H 0.0 **** 0.06
33765 H 89.03201131398741 15.620061626436978 140.46906045295964 H 0.0 **** 0.06
33766 C 83.2122058863716 74.9633063384029 88.49821086562845 C 0.0 **** -0.24
33767 H 82.91540666008571 75.96512808766026 88.18834999923614 H 0.0 **** 0.06
33768 H 83.92004258260678 74.55496112495523 87.77618123594802 H 0.0 **** 0.06
33769 H 82.33201507770019 74.32203842348113 88.54717994954085 H 0.0 **** 0.06
33770 H 83.68197496736104 75.01186325573049 89.48094562994935 H 0.0 **** 0.06
33771 C 46.35342612453263 87.12186555064233 67.19316217175596 C 0.0 **** -0.24
33772 H 45.98297401507375 87.05161183723663 68.21682230174298 H 0.0 **** 0.06
33773 H 46.74178419191446 86.15221850204028 66.88025164648559 H 0.0 **** 0.06
33774 H 47.14921530250706 87.86519052263338 67.14567604116861 H 0.0 **** 0.06
33775 H 45.5388365917766 87.41799339401854 66.53272705766419 H 0.0 **** 0.06
33776 C 26.230947403012706 100.78428536469568 173.22047939821132 C 0.0 **** -0.24
33777 H 26.042041848030507 100.82537203929098 172.1482774992134 H 0.0 **** 0.06
33778 H 27.19002413837022 101.2552053312221 173.43859540037317 H 0.0 **** 0.06
33779 H 26.253118294401887 99.7450830303332 173.5456720728406 H 0.0 **** 0.06
33780 H 25.437586282889413 101.3136416870035 173.74883098330122 H 0.0 **** 0.06
33781 C 20.99214762687049 55.94560751145656 9.52975523331476 C 0.0 **** -0.24
33782 H 20.10789154088002 56.18785599627684 10.119560470781849 H 0.0 **** 0.06
33783 H 20.69268983312236 55.4099107626279 8.628767223255117 H 0.0 **** 0.06
33784 H 21.661335997738774 55.31897020147146 10.119867073993085 H 0.0 **** 0.06
33785 H 21.50649910243959 56.86565186361895 9.252548979007614 H 0.0 **** 0.06
33786 C 79.24900645477472 19.173337184876203 184.4778440137334 C 0.0 **** -0.24
33787 H 79.44425832097889 18.427133440993487 183.7078628208 H 0.0 **** 0.06
33788 H 79.90572760081614 18.99545306151589 185.33051627464002 H 0.0 **** 0.06
33789 H 78.20992788638479 19.101045923010616 184.7975501931856 H 0.0 **** 0.06
33790 H 79.43788695663446 20.16837644557603 184.07521343407825 H 0.0 **** 0.06
33791 C 175.9158397729 79.69074772367851 38.507889144371035 C 0.0 **** -0.24
33792 H 176.4451065671019 79.17601462969442 37.70675567500474 H 0.0 **** 0.06
33793 H 176.5992683106362 79.87218009292472 39.33760180557586 H 0.0 **** 0.06
33794 H 175.08503958499097 79.07283382631451 38.84889916208125 H 0.0 **** 0.06
33795 H 175.53314941903236 80.64169277632892 38.13775679732754 H 0.0 **** 0.06
33796 C 128.61409548372467 7.336665319767462 168.4951709957274 C 0.0 **** -0.24
33797 H 127.58326476857741 7.465207773175223 168.16756117123606 H 0.0 **** 0.06
33798 H 128.63227559060618 7.12623650661908 169.56521566709029 H 0.0 **** 0.06
33799 H 129.17551835299292 8.248514414746069 168.29485394533452 H 0.0 **** 0.06
33800 H 129.06628129158548 6.504807011339437 167.95427346750762 H 0.0 **** 0.06
33801 C 161.54863949128708 37.22553663366773 0.3649671154672731 C 0.0 **** -0.24
33802 H 162.20190899505548 36.65202015754039 -0.2924316707969723 H 0.0 **** 0.06
33803 H 162.15306287713946 37.83632395108947 1.0357678259373984 H 0.0 **** 0.06
33804 H 160.93345723015972 36.54238729713211 0.950133006000982 H 0.0 **** 0.06
33805 H 160.9063997271217 37.8706612800778 -0.23543330488038094 H 0.0 **** 0.06
33806 C 72.29330906956915 116.20285695660182 89.2814524340294 C 0.0 **** -0.24
33807 H 72.91502008064037 117.09774126812995 89.25394151167393 H 0.0 **** 0.06
33808 H 72.17903233789491 115.80856727725084 88.27218199601202 H 0.0 **** 0.06
33809 H 71.31306035359171 116.45503055163427 89.68658365792794 H 0.0 **** 0.06
33810 H 72.76566172314722 115.45152960203653 89.91474901092363 H 0.0 **** 0.06
33811 C 159.73278771657087 122.71279076457797 50.06600569063964 C 0.0 **** -0.24
33812 H 159.54852342860423 121.6494007719675 49.91049434181359 H 0.0 **** 0.06
33813 H 160.75816270478208 122.9481615044689 49.78232789643944 H 0.0 **** 0.06
33814 H 159.58088807538408 122.95707720190661 51.1173096409707 H 0.0 **** 0.06
33815 H 159.0430503152056 123.2944911227497 49.45515271918693 H 0.0 **** 0.06
33816 C 168.3517046052852 25.45158699573912 67.58277867681124 C 0.0 **** -0.24
33817 H 168.03806610987797 25.301963074808157 66.55035293902182 H 0.0 **** 0.06
33818 H 168.28043150690092 24.50809235451942 68.1250870777767 H 0.0 **** 0.06
33819 H 167.7063186656574 26.192172013135178 68.05450017254549 H 0.0 **** 0.06
33820 H 169.3833549414203 25.80395078350722 67.6007988094928 H 0.0 **** 0.06
33821 C 71.05503424963166 1.8345710703242162 66.43958240043179 C 0.0 **** -0.24
33822 H 70.96998261121422 0.9171704965992262 65.85739878526067 H 0.0 **** 0.06
33823 H 70.27343127502348 1.8559929770855774 67.20009492217727 H 0.0 **** 0.06
33824 H 70.94392227278934 2.695403399890239 65.77970119144362 H 0.0 **** 0.06
33825 H 72.03187932879382 1.8699021623232 66.92147632906133 H 0.0 **** 0.06
33826 C 17.605370139141854 59.38750859460443 88.7147678402876 C 0.0 **** -0.24
33827 H 17.47788096345326 59.1554324635667 87.6577983408128 H 0.0 **** 0.06
33828 H 17.81342129029332 58.46985706180601 89.26584385103087 H 0.0 **** 0.06
33829 H 16.692829310459132 59.84298667102679 89.0990715166032 H 0.0 **** 0.06
33830 H 18.436357137167505 60.08185845648843 88.83643634844242 H 0.0 **** 0.06
33831 C 126.52881186197821 177.60847965252228 162.94555437554925 C 0.0 **** -0.24
33832 H 126.62684002959035 178.63256939833246 162.58530302538156 H 0.0 **** 0.06
33833 H 127.27364734385814 176.97962761643865 162.45905714481216 H 0.0 **** 0.06
33834 H 125.53048310487468 177.23625695407753 162.71562325947446 H 0.0 **** 0.06
33835 H 126.68367808041775 177.58717463370957 164.02440604288665 H 0.0 **** 0.06
33836 C 181.445085331909 85.68566948321946 184.25503403288988 C 0.0 **** -0.24
33837 H 180.7314742922999 85.00675016526758 183.78761321528197 H 0.0 **** 0.06
33838 H 180.9118968405998 86.38868361331676 184.8946655812084 H 0.0 **** 0.06
33839 H 181.98419940971687 86.2341918649996 183.4823183131187 H 0.0 **** 0.06
33840 H 182.15287301439318 85.11199667211278 184.8546034627848 H 0.0 **** 0.06
33841 C 129.3729150993468 77.54503953027641 100.70113596260283 C 0.0 **** -0.24
33842 H 129.6610267992536 77.50522520377133 101.75111539335934 H 0.0 **** 0.06
33843 H 128.97553968286553 76.57694167327804 100.39629718632547 H 0.0 **** 0.06
33844 H 130.24571242427203 77.7877806622365 100.09436091798729 H 0.0 **** 0.06
33845 H 128.60998436716102 78.31147556648891 100.56257955560433 H 0.0 **** 0.06
33846 C 184.3095203706639 17.398844629427202 167.4279941048051 C 0.0 **** -0.24
33847 H 185.00876301544878 18.230788485514296 167.5107981079574 H 0.0 **** 0.06
33848 H 183.66079813716124 17.55454384398371 166.5659641845273 H 0.0 **** 0.06
33849 H 183.70567030556515 17.340727622440426 168.33316804227388 H 0.0 **** 0.06
33850 H 184.865217908291 16.469613246903464 167.30149251641762 H 0.0 **** 0.06
33851 C 119.0274594828641 117.17701393468064 181.5998842343401 C 0.0 **** -0.24
33852 H 119.88788828474044 117.76340931481991 181.92016077962842 H 0.0 **** 0.06
33853 H 119.31109383188495 116.12679430390824 181.52683177139411 H 0.0 **** 0.06
33854 H 118.68897576240902 117.53037520878564 180.6256697021484 H 0.0 **** 0.06
33855 H 118.22209073392379 117.28698859364027 182.32522628090078 H 0.0 **** 0.06
33856 C 32.053784275097655 60.5363159997422 57.4794468267375 C 0.0 **** -0.24
33857 H 31.344316001702737 60.53499681658339 58.30750202705303 H 0.0 **** 0.06
33858 H 32.73604150666711 59.69306391988633 57.58526910343835 H 0.0 **** 0.06
33859 H 32.62207336973131 61.46674600775566 57.48973684867872 H 0.0 **** 0.06
33860 H 31.51243478089316 60.450099857430445 56.53768738405398 H 0.0 **** 0.06
33861 C 56.130493402363456 41.34242299542825 122.33118752975177 C 0.0 **** -0.24
33862 H 57.03399173093179 41.93021653428127 122.17274239776815 H 0.0 **** 0.06
33863 H 56.375582996824235 40.44429337701527 122.89802757795401 H 0.0 **** 0.06
33864 H 55.70713543621959 41.059165447725775 121.36695229655727 H 0.0 **** 0.06
33865 H 55.403015053363205 41.93582130948184 122.8850512820102 H 0.0 **** 0.06
33866 C 87.70473193690776 83.80156209264793 180.9492346983617 C 0.0 **** -0.24
33867 H 87.86686032059634 84.58511456086985 180.20902710512345 H 0.0 **** 0.06
33868 H 88.62018559683105 83.22438373173362 181.07459047144837 H 0.0 **** 0.06
33869 H 86.90340561814918 83.14478598651428 180.6119015988995 H 0.0 **** 0.06
33870 H 87.42700067956349 84.25388524075161 181.9017831253509 H 0.0 **** 0.06
33871 C 82.31752195866181 38.96656933136484 4.266891197784972 C 0.0 **** -0.24
33872 H 81.65599884105706 38.19476254635413 3.8728698458090705 H 0.0 **** 0.06
33873 H 82.43820889710673 38.826410518384364 5.340906804653237 H 0.0 **** 0.06
33874 H 81.88400041068394 39.94840098942774 4.0750969300311155 H 0.0 **** 0.06
33875 H 83.28910270218876 38.89559762258904 3.778948359249334 H 0.0 **** 0.06
33876 C 177.80456826656973 170.94742607659316 126.65997206697602 C 0.0 **** -0.24
33877 H 178.57042346064472 170.83709360586846 127.4272913718404 H 0.0 **** 0.06
33878 H 176.98797805799276 170.25355499764908 126.8594256184702 H 0.0 **** 0.06
33879 H 178.23675855105608 170.7292033670633 125.6822513370351 H 0.0 **** 0.06
33880 H 177.42553951310515 171.96889656393589 126.66943712560919 H 0.0 **** 0.06
33881 C 117.3396946755304 150.52710594812345 181.07772133346674 C 0.0 **** -0.24
33882 H 116.27810328906163 150.35450932398513 180.89595901949224 H 0.0 **** 0.06
33883 H 117.79165341682231 150.97415913151184 180.1912856872762 H 0.0 **** 0.06
33884 H 117.82923493598075 149.57862801170887 181.29626028650853 H 0.0 **** 0.06
33885 H 117.45822537287476 151.2018524287065 181.9259536377032 H 0.0 **** 0.06
33886 C 102.08852690396698 180.31215443375385 91.58499561898434 C 0.0 **** -0.24
33887 H 101.13369259418052 180.62512447078382 92.00680783692489 H 0.0 **** 0.06
33888 H 102.52744167244684 181.1401505345526 91.02667878084183 H 0.0 **** 0.06
33889 H 101.93072448362513 179.46689941378116 90.9161139572475 H 0.0 **** 0.06
33890 H 102.76240534631556 180.0186315939814 92.38994937763572 H 0.0 **** 0.06
33891 C 148.61140726752785 117.00932045248088 175.93393750120242 C 0.0 **** -0.24
33892 H 149.0691252409589 116.87586958635997 176.9136259525451 H 0.0 **** 0.06
33893 H 149.36812769992355 117.33841591938246 175.2211698353616 H 0.0 **** 0.06
33894 H 147.82350767119684 117.7584879225844 176.00004838686397 H 0.0 **** 0.06
33895 H 148.1861012541864 116.06195492234603 175.59992589027956 H 0.0 **** 0.06
33896 C 156.4850863677732 100.38596936023261 81.24090441699536 C 0.0 **** -0.24
33897 H 156.17477575357043 101.07413108552704 82.02759822127973 H 0.0 **** 0.06
33898 H 155.6499714915714 99.73915733114269 80.974324832661 H 0.0 **** 0.06
33899 H 157.31759723852915 99.77894111148247 81.59725498795332 H 0.0 **** 0.06
33900 H 156.79813214616237 100.95409341229386 80.36438984865372 H 0.0 **** 0.06
33901 C 13.988124801223591 71.36135706211205 85.57842117363019 C 0.0 **** -0.24
33902 H 12.936149958063524 71.57850294221718 85.76322365117996 H 0.0 **** 0.06
33903 H 14.301270053134644 70.52540157397262 86.20352342504059 H 0.0 **** 0.06
33904 H 14.587164203374627 72.23974580820727 85.81891103265 H 0.0 **** 0.06
33905 H 14.126373596262297 71.10323302909053 84.52873855282166 H 0.0 **** 0.06
33906 C 20.513086340396057 120.82935555793512 88.98603084828555 C 0.0 **** -0.24
33907 H 19.839354922949212 120.80806813353792 88.12972297475379 H 0.0 **** 0.06
33908 H 21.530918976138196 120.62712503038756 88.65218820835459 H 0.0 **** 0.06
33909 H 20.209339088700403 120.06825690246546 89.70593976542399 H 0.0 **** 0.06
33910 H 20.47244687000645 121.81082352643227 89.45634178222171 H 0.0 **** 0.06
33911 C 89.27596358641735 119.77465116131593 82.84367299249666 C 0.0 **** -0.24
33912 H 89.72418936045962 120.70529950586798 83.19232566936515 H 0.0 **** 0.06
33913 H 90.04221170427401 119.15423127654854 82.3779022614871 H 0.0 **** 0.06
33914 H 88.49578079512911 119.99818882869887 82.1162335931321 H 0.0 **** 0.06
33915 H 88.84199964755005 119.24142327611226 83.6894966648665 H 0.0 **** 0.06
33916 C 171.96817171239041 17.62369362151508 167.8542620893312 C 0.0 **** -0.24
33917 H 172.2746813454774 17.74386968576593 168.89317927210567 H 0.0 **** 0.06
33918 H 171.25501828082594 16.80302849658093 167.77724717700602 H 0.0 **** 0.06
33919 H 172.84158258689064 17.405329466896482 167.23980549760432 H 0.0 **** 0.06
33920 H 171.50070355413987 18.545212120621635 167.5056310969851 H 0.0 **** 0.06
33921 C 31.98614527389128 183.3321007520123 13.704471550808705 C 0.0 **** -0.24
33922 H 31.557043854413507 182.38442964741768 14.028302968626946 H 0.0 **** 0.06
33923 H 33.01309250415059 183.1720600767211 13.37533367211978 H 0.0 **** 0.06
33924 H 31.97707412690542 184.03782281494279 14.534737430946706 H 0.0 **** 0.06
33925 H 31.397931886526038 183.73476303329966 12.879994470325698 H 0.0 **** 0.06
33926 C 161.8031544755871 141.74696034286563 39.81743795745473 C 0.0 **** -0.24
33927 H 161.46915168288464 142.60927661459408 40.39585232877559 H 0.0 **** 0.06
33928 H 161.67002961328345 141.9489945407381 38.754896521501294 H 0.0 **** 0.06
33929 H 161.2168866944325 140.87267881360242 40.09823722834743 H 0.0 **** 0.06
33930 H 162.85756691085143 141.55896534507622 40.02353428806899 H 0.0 **** 0.06
33931 C 82.76508385900642 28.978436903689015 8.10085634399104 C 0.0 **** -0.24
33932 H 83.37628859660897 28.07552300681806 8.119873535962256 H 0.0 **** 0.06
33933 H 82.35063854172505 29.156977908828964 9.09318570365383 H 0.0 **** 0.06
33934 H 81.95311306004517 28.851384035796087 7.385231903271858 H 0.0 **** 0.06
33935 H 83.38110503763464 29.8270580982597 7.804442235043837 H 0.0 **** 0.06
33936 C 89.74822498249141 148.26951723937472 16.145635090867273 C 0.0 **** -0.24
33937 H 88.8537509877725 147.99413685043447 15.587359831958452 H 0.0 **** 0.06
33938 H 89.47834713173724 148.95765364895522 16.94726693428848 H 0.0 **** 0.06
33939 H 90.45930134399588 148.75290528588624 15.47545468526053 H 0.0 **** 0.06
33940 H 90.20080956671073 147.37406790095338 16.571439079152526 H 0.0 **** 0.06
33941 C 141.44644016983273 58.35644834884458 91.75370383504843 C 0.0 **** -0.24
33942 H 141.42679843186687 58.17708984083674 92.8282730836345 H 0.0 **** 0.06
33943 H 141.72061332237672 59.39492584705256 91.56397779982338 H 0.0 **** 0.06
33944 H 140.46055065814517 58.158099424485385 91.33400641730394 H 0.0 **** 0.06
33945 H 142.17942423111964 57.697204327527075 91.28839205093861 H 0.0 **** 0.06
33946 C 54.508059388605346 104.65319384153736 68.68947274009165 C 0.0 **** -0.24
33947 H 54.050733495390745 103.94518083426902 67.99689132141584 H 0.0 **** 0.06
33948 H 53.733436139543855 105.10553539949217 69.30910433420544 H 0.0 **** 0.06
33949 H 55.02261928305464 105.4308683826672 68.12547914538978 H 0.0 **** 0.06
33950 H 55.22292195201656 104.12988436766477 69.32398519703655 H 0.0 **** 0.06
33951 C 123.22191162978369 6.002720907745129 168.02082452505852 C 0.0 **** -0.24
33952 H 123.95478459712983 5.611967979128849 167.31516191655425 H 0.0 **** 0.06
33953 H 123.64220664688317 5.987702673793734 169.0263079454818 H 0.0 **** 0.06
33954 H 122.32487358237618 5.382568523212541 167.99266119679294 H 0.0 **** 0.06
33955 H 122.9646753003753 7.026095554627545 167.74863864636063 H 0.0 **** 0.06
33956 C 170.19864232456285 28.703195165632565 148.1227378702008 C 0.0 **** -0.24
33957 H 169.87493573856614 29.714942119505736 147.87848081263257 H 0.0 **** 0.06
33958 H 171.24572419775723 28.720943345631667 148.42471123119742 H 0.0 **** 0.06
33959 H 170.083118193203 28.063989978474467 147.24753203020265 H 0.0 **** 0.06
33960 H 169.5914542638099 28.314391903790806 148.9396356744465 H 0.0 **** 0.06
33961 C 112.7435876122981 149.75739922606334 43.14480643203751 C 0.0 **** -0.24
33962 H 111.8508396017178 150.17741192907852 43.60783955709354 H 0.0 **** 0.06
33963 H 113.628926978553 150.1158042773572 43.67166830437179 H 0.0 **** 0.06
33964 H 112.7916161078977 150.06723159524435 42.10098483616238 H 0.0 **** 0.06
33965 H 112.70425373412066 148.66913393039607 43.19932132673148 H 0.0 **** 0.06
33966 C 57.76059733991541 165.50204965325207 169.9824892441271 C 0.0 **** -0.24
33967 H 58.19213069337445 164.74773958613088 170.63969745057656 H 0.0 **** 0.06
33968 H 56.673141579551995 165.47382888263252 170.06149530440823 H 0.0 **** 0.06
33969 H 58.05548161233476 165.2987984486825 168.95279482939713 H 0.0 **** 0.06
33970 H 58.12069240784081 166.48816242251382 170.27600502725574 H 0.0 **** 0.06
33971 C 169.91497326230225 71.20793137646513 30.510254733695348 C 0.0 **** -0.24
33972 H 170.05156362164536 70.94176840407263 31.558185885128125 H 0.0 **** 0.06
33973 H 169.51300910310025 72.21950949087473 30.441552964816253 H 0.0 **** 0.06
33974 H 169.21900699076338 70.50812903364155 30.045820631983588 H 0.0 **** 0.06
33975 H 170.87411495757542 71.16196667866824 29.99525104613039 H 0.0 **** 0.06
33976 C 13.296912309218328 137.07591525098996 183.85840845169716 C 0.0 **** -0.24
33977 H 14.109326311510955 137.66965554869148 184.27859214439655 H 0.0 **** 0.06
33978 H 12.597196289025305 137.73253076978136 183.34133987317327 H 0.0 **** 0.06
33979 H 12.778746595596573 136.55066094786565 184.66040755447244 H 0.0 **** 0.06
33980 H 13.705344060854259 136.3512668379247 183.15319672928734 H 0.0 **** 0.06
33981 C 71.4932827087248 90.08827684135429 45.46609596354784 C 0.0 **** -0.24
33982 H 71.1321645848683 89.15543838534091 45.031816668883664 H 0.0 **** 0.06
33983 H 70.88481280540863 90.91693660642608 45.102055077439275 H 0.0 **** 0.06
33984 H 72.5322888789511 90.24480166051097 45.1765506014446 H 0.0 **** 0.06
33985 H 71.4222705467716 90.03388444883672 46.55245414827556 H 0.0 **** 0.06
33986 C 13.113273166706051 79.09029862396454 177.01879053674634 C 0.0 **** -0.24
33987 H 12.785368944009178 78.61543884422724 177.9436118052202 H 0.0 **** 0.06
33988 H 14.1974028759754 79.20968188112744 177.03661802196035 H 0.0 **** 0.06
33989 H 12.641664604634798 80.06809292144777 176.92471067407587 H 0.0 **** 0.06
33990 H 12.831264790147657 78.46663298296107 176.1708372406089 H 0.0 **** 0.06
33991 C 129.49874210580322 162.51471138269682 15.626328557621441 C 0.0 **** -0.24
33992 H 129.79612907153506 162.5148444230423 16.67489774181516 H 0.0 **** 0.06
33993 H 129.89744099924508 161.62602106515573 15.136468281891055 H 0.0 **** 0.06
33994 H 129.89157492258158 163.40713535064663 15.137844951279995 H 0.0 **** 0.06
33995 H 128.4115694078086 162.51178113193941 15.55637664160816 H 0.0 **** 0.06
33996 C 83.68883615218402 39.498138122043514 95.52455517499506 C 0.0 **** -0.24
33997 H 83.93171670589663 38.45091730652953 95.33957407499874 H 0.0 **** 0.06
33998 H 84.22625129549749 39.84470773061915 96.40686454018716 H 0.0 **** 0.06
33999 H 82.616376046004 39.596842061514906 95.69004897070492 H 0.0 **** 0.06
34000 H 83.98013775644688 40.09582954324409 94.66211233679654 H 0.0 **** 0.06
34001 C 82.59737029287625 11.875664551190084 184.5866070861973 C 0.0 **** -0.24
34002 H 82.61929260360704 10.787412193509539 184.6446034859969 H 0.0 **** 0.06
34003 H 83.45856724170356 12.225760430128673 184.01735577231102 H 0.0 **** 0.06
34004 H 82.63251894855178 12.294310125358777 185.59290567211406 H 0.0 **** 0.06
34005 H 81.68024664871861 12.195696165453654 184.09221114467542 H 0.0 **** 0.06
34006 C 90.39162843050634 2.3831106388453875 161.87757506546777 C 0.0 **** -0.24
34007 H 90.99918427947033 2.629779069694223 161.00680245358237 H 0.0 **** 0.06
34008 H 89.62595295201287 3.147243990082579 162.01401795836918 H 0.0 **** 0.06
34009 H 91.02555206257959 2.3415462870048245 162.76284427676254 H 0.0 **** 0.06
34010 H 89.91548471820413 1.414257593955945 161.72531766018244 H 0.0 **** 0.06
34011 C 148.49527560840517 166.76331891715304 107.66344357933099 C 0.0 **** -0.24
34012 H 148.92796026462347 166.53946492696912 106.68923174359514 H 0.0 **** 0.06
34013 H 147.45175817739306 166.44925696281769 107.67863619696436 H 0.0 **** 0.06
34014 H 148.55561046852597 167.83507681084205 107.84978750512482 H 0.0 **** 0.06
34015 H 149.04761762377674 166.228873836377 108.43723046889272 H 0.0 **** 0.06
34016 C 27.898016659236987 105.28117313390665 92.70228494807766 C 0.0 **** -0.24
34017 H 27.057802201698962 105.24598382712459 92.00907521627498 H 0.0 **** 0.06
34018 H 28.51641316183722 106.15103793861083 92.48022108906191 H 0.0 **** 0.06
34019 H 28.493844713287842 104.37411482317945 92.59702558963541 H 0.0 **** 0.06
34020 H 27.523558525596513 105.35279396700848 93.72392184544601 H 0.0 **** 0.06
34021 C 86.51407377746669 60.67037008894603 58.72444488823021 C 0.0 **** -0.24
34022 H 86.53808390785507 60.6966710739114 57.634443894470394 H 0.0 **** 0.06
34023 H 87.53303851152391 60.62105653059339 59.10842458612919 H 0.0 **** 0.06
34024 H 85.95801201317748 59.79339683201941 59.05429266986721 H 0.0 **** 0.06
34025 H 86.02845174947946 61.57109644419097 59.09867291953974 H 0.0 **** 0.06
34026 C 144.67209706906067 140.51459419772408 54.294440193221135 C 0.0 **** -0.24
34027 H 144.04342747252466 141.30698878679146 53.887258738789996 H 0.0 **** 0.06
34028 H 145.5782462810168 140.95195896437838 54.715667058935594 H 0.0 **** 0.06
34029 H 144.93938826285543 139.81790111320112 53.50039894254596 H 0.0 **** 0.06
34030 H 144.12767622259258 139.98385726394417 55.07510823909564 H 0.0 **** 0.06
34031 C 174.71635894096988 6.628179753265371 88.52682737874397 C 0.0 **** -0.24
34032 H 174.18512474704994 7.194967489942137 87.76166381679718 H 0.0 **** 0.06
34033 H 175.57540196429545 7.202370553550594 88.87410878615026 H 0.0 **** 0.06
34034 H 175.0563311908496 5.682375549071942 88.10708269964505 H 0.0 **** 0.06
34035 H 174.04592281085712 6.434107195080145 89.3653127112508 H 0.0 **** 0.06
34036 C 149.30497372798806 138.05686553374443 105.74653113298665 C 0.0 **** -0.24
34037 H 149.1528809143182 137.02257498575074 106.05397898964212 H 0.0 **** 0.06
34038 H 150.2222714212886 138.1319435113088 105.16244842874387 H 0.0 **** 0.06
34039 H 149.38275041742878 138.69003934732513 106.63011251635045 H 0.0 **** 0.06
34040 H 148.4595759290229 138.38325967253246 105.13977350212498 H 0.0 **** 0.06
34041 C 37.99495885260603 121.87045317398048 154.67843840673058 C 0.0 **** -0.24
34042 H 37.3915705116093 121.16969894253958 154.10290966077883 H 0.0 **** 0.06
34043 H 38.506132495350926 121.33712928915253 155.48013692409245 H 0.0 **** 0.06
34044 H 37.35067979885025 122.63901178961112 155.10529378683106 H 0.0 **** 0.06
34045 H 38.73212446938851 122.33736644004847 154.02463473752843 H 0.0 **** 0.06
34046 C 39.83244826597344 144.2764012447632 143.32603925148595 C 0.0 **** -0.24
34047 H 40.112932686776276 145.31667806342986 143.49727021976764 H 0.0 **** 0.06
34048 H 39.32271382054698 143.88939889291692 144.2082417977188 H 0.0 **** 0.06
34049 H 40.72811199994521 143.68636077157817 143.13501033217597 H 0.0 **** 0.06
34050 H 39.16679100254211 144.21752554460352 142.46519465989877 H 0.0 **** 0.06
34051 C 140.6415988240243 150.2759616533876 151.86280437917873 C 0.0 **** -0.24
34052 H 140.8160365748558 149.23926526346003 152.15119202659832 H 0.0 **** 0.06
34053 H 139.75984452975445 150.3311354695484 151.22336977726195 H 0.0 **** 0.06
34054 H 141.5079550646363 150.65198940618208 151.31950305110854 H 0.0 **** 0.06
34055 H 140.48172298102259 150.87964730022185 152.75572861912633 H 0.0 **** 0.06
34056 C 27.10081564480967 90.846379495618 33.350018911297454 C 0.0 **** -0.24
34057 H 27.614567425959535 90.75049110476455 34.30563119842023 H 0.0 **** 0.06
34058 H 26.0671597099943 91.14932251162828 33.52116310627811 H 0.0 **** 0.06
34059 H 27.11705269381187 89.88667873379323 32.831639497855875 H 0.0 **** 0.06
34060 H 27.60392337579468 91.59684952877411 32.74066622852952 H 0.0 **** 0.06
34061 C 117.63577168249032 168.04106886006818 29.3606037917815 C 0.0 **** -0.24
34062 H 118.63112105176026 168.46908948077592 29.241535137221206 H 0.0 **** 0.06
34063 H 116.97648328669493 168.77734508495078 29.819825398254295 H 0.0 **** 0.06
34064 H 117.69354689647065 167.15761079031842 29.99534719906336 H 0.0 **** 0.06
34065 H 117.24235741198214 167.76082942131947 28.383594873779487 H 0.0 **** 0.06
34066 C 169.8388625319568 68.10919069548895 66.26949422663746 C 0.0 **** -0.24
34067 H 170.28715821476737 67.26729023846656 66.79740423143825 H 0.0 **** 0.06
34068 H 170.55980009285418 68.92491063698584 66.20978335064189 H 0.0 **** 0.06
34069 H 168.95319749490113 68.44574094064039 66.80789437897771 H 0.0 **** 0.06
34070 H 169.55727921413447 67.79855049883938 65.26388851858852 H 0.0 **** 0.06
34071 C 162.77276482303236 73.01083651095371 53.9184262378766 C 0.0 **** -0.24
34072 H 162.12775142570956 72.37313712638877 54.521740866040645 H 0.0 **** 0.06
34073 H 163.81483302202912 72.73722928936434 54.08706297000958 H 0.0 **** 0.06
34074 H 162.62106249886588 74.05310183302106 54.2005694410127 H 0.0 **** 0.06
34075 H 162.52878337180533 72.88020632435416 52.86422029734267 H 0.0 **** 0.06
34076 C 151.54921313501677 120.24368576420149 81.02494869673603 C 0.0 **** -0.24
34077 H 151.94567374898924 120.63420460890255 80.08767745625147 H 0.0 **** 0.06
34078 H 151.6927807628608 120.98137141695018 81.81439126902683 H 0.0 **** 0.06
34079 H 152.0744064417455 119.32515395733297 81.28582541242878 H 0.0 **** 0.06
34080 H 150.48608018161735 120.03479158697486 80.90989268765685 H 0.0 **** 0.06
34081 C 115.86697069088056 171.35640329452465 50.52049313118448 C 0.0 **** -0.24
34082 H 116.51385757063626 171.78887860507302 49.7576184243683 H 0.0 **** 0.06
34083 H 116.46260323168552 170.74075691733506 51.19503875255927 H 0.0 **** 0.06
34084 H 115.10514671090662 170.7403294693052 50.043112128679354 H 0.0 **** 0.06
34085 H 115.38695990094074 172.1553156856926 51.08464733644723 H 0.0 **** 0.06
34086 C 14.944613757314869 146.67522377331733 126.77849091018709 C 0.0 **** -0.24
34087 H 14.240688614810779 146.31156351588834 127.52670542578062 H 0.0 **** 0.06
34088 H 14.956111991554792 145.99182380455844 125.92859522785659 H 0.0 **** 0.06
34089 H 15.942840189057904 146.72925175869523 127.21506321480945 H 0.0 **** 0.06
34090 H 14.64030734791396 147.66718605117498 126.44439090344804 H 0.0 **** 0.06
34091 C 158.58032974792164 91.85078800013103 5.2224395128547485 C 0.0 **** -0.24
34092 H 159.42284126709842 92.19978546448466 5.818486023920002 H 0.0 **** 0.06
34093 H 158.04046250498868 92.70844843398557 4.818820448620841 H 0.0 **** 0.06
34094 H 157.91022027966886 91.26241067687211 5.850085763347181 H 0.0 **** 0.06
34095 H 158.9454405386734 91.23315632093123 4.4021764024464005 H 0.0 **** 0.06
34096 C 22.065241938093337 146.65122232547927 94.0531393601616 C 0.0 **** -0.24
34097 H 21.414487431425044 146.9423520182142 93.22827728050117 H 0.0 **** 0.06
34098 H 22.62202353884163 145.75527139343444 93.77753537937917 H 0.0 **** 0.06
34099 H 21.461307543255757 146.446662311381 94.9376221638916 H 0.0 **** 0.06
34100 H 22.762632416766635 147.46167743480555 94.26836118543935 H 0.0 **** 0.06
34101 C 124.08532367726376 62.9843084004774 42.92919605843829 C 0.0 **** -0.24
34102 H 124.81996399962442 63.46967311953753 43.57091174632269 H 0.0 **** 0.06
34103 H 124.4731698807859 62.02124723124042 42.59746142591193 H 0.0 **** 0.06
34104 H 123.88688999551287 63.61447530455055 42.06192382686534 H 0.0 **** 0.06
34105 H 123.16095279457663 62.831464959050194 43.48561559453597 H 0.0 **** 0.06
34106 C 40.97402005084105 112.31070447411292 169.07719385168764 C 0.0 **** -0.24
34107 H 40.02906737894243 112.5425013705887 169.56961748605977 H 0.0 **** 0.06
34108 H 41.037818152296936 112.86049847094773 168.13855669668317 H 0.0 **** 0.06
34109 H 41.02529313115994 111.24031290856965 168.87770367051075 H 0.0 **** 0.06
34110 H 41.80142246261585 112.59970725600783 169.72485038973537 H 0.0 **** 0.06
34111 C 117.24574929594057 70.68496161313412 44.08635403692642 C 0.0 **** -0.24
34112 H 116.54713905427211 70.7655302659072 44.91786034025142 H 0.0 **** 0.06
34113 H 118.19552549444133 70.28856441070427 44.447255446367166 H 0.0 **** 0.06
34114 H 117.40519983584194 71.67027702013802 43.648384361115944 H 0.0 **** 0.06
34115 H 116.8362229451029 70.01482755319974 43.33073583689719 H 0.0 **** 0.06
34116 C 53.397934195356356 116.15379988179286 35.77504868441201 C 0.0 **** -0.24
34117 H 53.51650493054689 115.1461152064776 36.17396716229621 H 0.0 **** 0.06
34118 H 53.959591849619244 116.24499607210403 34.845783771746454 H 0.0 **** 0.06
34119 H 53.771216358450346 116.87769927718564 36.49893640880407 H 0.0 **** 0.06
34120 H 52.34122242358933 116.3455468223457 35.58171536676349 H 0.0 **** 0.06
34121 C 144.5233229820422 54.54376847197989 47.40188291826422 C 0.0 **** -0.24
34122 H 145.0358899229744 53.67424537131001 46.98986340065484 H 0.0 **** 0.06
34123 H 144.99462659955753 54.830096702452636 48.342730109623744 H 0.0 **** 0.06
34124 H 143.47647431922394 54.29667862229644 47.58025573817055 H 0.0 **** 0.06
34125 H 144.58675794205448 55.37114593922536 46.695264994323296 H 0.0 **** 0.06
34126 C 119.70077870222597 60.28926142831304 5.318027334140062 C 0.0 **** -0.24
34127 H 120.52135227012725 60.99629885228205 5.443185170068787 H 0.0 **** 0.06
34128 H 119.42576594887011 60.23489102250511 4.264016782538256 H 0.0 **** 0.06
34129 H 118.84261776891846 60.621282350742774 5.900924616635315 H 0.0 **** 0.06
34130 H 120.01527770605178 59.30364249965825 5.663256392542962 H 0.0 **** 0.06
34131 C 118.86778208846158 123.44781155621189 58.38059161471472 C 0.0 **** -0.24
34132 H 119.90308745976677 123.63285085020124 58.668349552579 H 0.0 **** 0.06
34133 H 118.41956325508409 122.73692691804143 59.07501963932509 H 0.0 **** 0.06
34134 H 118.83914795249808 123.03784320667256 57.37122082432268 H 0.0 **** 0.06
34135 H 118.31088496906142 124.38464665104391 58.40901658757963 H 0.0 **** 0.06
34136 C 158.71238324715603 3.882541853257578 102.37992146934938 C 0.0 **** -0.24
34137 H 159.13236070749488 4.048465107245164 101.38829061636362 H 0.0 **** 0.06
34138 H 158.09379368103612 2.983896485839921 102.36617838181759 H 0.0 **** 0.06
34139 H 158.1021069221347 4.739646387056013 102.66452643693789 H 0.0 **** 0.06
34140 H 159.5205685884929 3.7561918206890823 103.09989401839057 H 0.0 **** 0.06
34141 C 21.78294154744509 150.47518738647187 167.34845393695304 C 0.0 **** -0.24
34142 H 21.236780571065054 150.54947649322304 166.40762254861673 H 0.0 **** 0.06
34143 H 21.4482446889279 151.26197938883388 168.0245476602854 H 0.0 **** 0.06
34144 H 22.849551450880142 150.58805158093725 167.15846627711434 H 0.0 **** 0.06
34145 H 21.594755153323007 149.50173505863017 167.80076444700939 H 0.0 **** 0.06
34146 C 29.16464283989292 82.60040899115978 121.35856090178511 C 0.0 **** -0.24
34147 H 30.085628742216088 82.20324592720277 121.78428594117524 H 0.0 **** 0.06
34148 H 28.47734457478947 82.86639313575535 122.16194866875038 H 0.0 **** 0.06
34149 H 28.70408002573265 81.84440456347255 120.72258954770955 H 0.0 **** 0.06
34150 H 29.391160986545856 83.48542261457311 120.76501330631008 H 0.0 **** 0.06
34151 C 139.3518105588637 74.31711160674071 159.97765426152978 C 0.0 **** -0.24
34152 H 140.2624838175363 74.02460464299422 160.50045657402276 H 0.0 **** 0.06
34153 H 138.9467974919525 73.45506581321602 159.44558012939495 H 0.0 **** 0.06
34154 H 139.58032554163952 75.10950643307983 159.26570013554237 H 0.0 **** 0.06
34155 H 138.61807515683665 74.67555384693532 160.69890446602616 H 0.0 **** 0.06
34156 C 73.78299830625315 65.14709505462855 143.91475103204584 C 0.0 **** -0.24
34157 H 74.26024644704188 64.16739889190126 143.90287692503796 H 0.0 **** 0.06
34158 H 74.33547420254865 65.81223883468277 144.57914362897066 H 0.0 **** 0.06
34159 H 72.75775419960178 65.04702595289655 144.2691562045141 H 0.0 **** 0.06
34160 H 73.78043696545012 65.56066899875736 142.90554221750966 H 0.0 **** 0.06
34161 C 79.42044164151578 144.89040817182953 66.99459094783633 C 0.0 **** -0.24
34162 H 80.08963411689344 145.457574107856 67.64150252786163 H 0.0 **** 0.06
34163 H 80.0084328341567 144.3259316332205 66.27056127307941 H 0.0 **** 0.06
34164 H 78.75592669418235 145.57541682923912 66.46863812581992 H 0.0 **** 0.06
34165 H 78.82887428336413 144.2019071513494 67.59873065870592 H 0.0 **** 0.06
34166 C 182.862522307149 135.60574602146056 134.23349159763075 C 0.0 **** -0.24
34167 H 183.92931099064225 135.78793993958044 134.10170898692382 H 0.0 **** 0.06
34168 H 182.55269336962766 134.78115532770812 133.5906023312291 H 0.0 **** 0.06
34169 H 182.30630260513772 136.5044521468335 133.9665265961719 H 0.0 **** 0.06
34170 H 182.66322347375046 135.3506897270367 135.2739653390331 H 0.0 **** 0.06
34171 C 104.0796980279081 40.49402778864982 14.21960824157594 C 0.0 **** -0.24
34172 H 104.43958996479024 41.51486289745347 14.34937667620926 H 0.0 **** 0.06
34173 H 104.90332507317667 39.79681056468229 14.368090419078698 H 0.0 **** 0.06
34174 H 103.67962803338146 40.37631404174965 13.212063771030046 H 0.0 **** 0.06
34175 H 103.29403265011074 40.29076330927529 14.947446021935548 H 0.0 **** 0.06
34176 C 155.79053489525464 57.37643914954225 140.09472404299953 C 0.0 **** -0.24
34177 H 155.05613068212745 57.0687090791543 140.83947637337758 H 0.0 **** 0.06
34178 H 155.97316347616982 56.552936000500665 139.40374231419997 H 0.0 **** 0.06
34179 H 156.72121351883573 57.6462716516435 140.5920720497108 H 0.0 **** 0.06
34180 H 155.41018581171534 58.23614706768096 139.5438136939556 H 0.0 **** 0.06
34181 C 104.19105968891108 31.266678894124254 134.54858103954678 C 0.0 **** -0.24
34182 H 104.29515316682858 32.076304760015105 133.82554446142439 H 0.0 **** 0.06
34183 H 103.17704000940955 31.2653007237856 134.94804511329886 H 0.0 **** 0.06
34184 H 104.90275136960139 31.412420248225644 135.3611958143477 H 0.0 **** 0.06
34185 H 104.3897323813365 30.31447451023675 134.05716744116597 H 0.0 **** 0.06
34186 C 158.94537383189407 62.71972098092675 22.763222102513737 C 0.0 **** -0.24
34187 H 158.98092148960393 62.011658960365025 21.934597380292445 H 0.0 **** 0.06
34188 H 158.44255750623051 63.63108026690054 22.440370207438235 H 0.0 **** 0.06
34189 H 159.96022529611065 62.95624604134457 23.08142760275001 H 0.0 **** 0.06
34190 H 158.39720212099758 62.277028362321744 23.594939234116055 H 0.0 **** 0.06
34191 C 128.73962931831358 166.77531063626458 99.06654003045882 C 0.0 **** -0.24
34192 H 129.2343918621567 166.1262915133736 98.34293751251145 H 0.0 **** 0.06
34193 H 128.37805568747802 166.1764173021854 99.90269232424525 H 0.0 **** 0.06
34194 H 127.90011190496587 167.27898163706956 98.58896557497475 H 0.0 **** 0.06
34195 H 129.44878058959455 167.5185443897122 99.43169402322265 H 0.0 **** 0.06
34196 C 75.30199380616176 15.670234279881242 149.24687079219478 C 0.0 **** -0.24
34197 H 75.0226270991258 15.261085837251358 150.21751704380532 H 0.0 **** 0.06
34198 H 74.5824892063197 16.434802404691936 148.9537768177273 H 0.0 **** 0.06
34199 H 75.30679906004676 14.872093524100535 148.50407968849845 H 0.0 **** 0.06
34200 H 76.29644146177466 16.112021373351524 149.31070173569074 H 0.0 **** 0.06
34201 C 133.1766882744244 58.599230458074544 117.05222887234599 C 0.0 **** -0.24
34202 H 132.9425862577571 58.89406205587039 116.02910769284277 H 0.0 **** 0.06
34203 H 133.5729010474846 57.583836566855894 117.05597659394083 H 0.0 **** 0.06
34204 H 132.2711113267191 58.6378888691645 117.65736627301659 H 0.0 **** 0.06
34205 H 133.92017763633453 59.28141856047466 117.46550643764765 H 0.0 **** 0.06
34206 C 97.48149280389224 15.497945336420798 94.91031397009753 C 0.0 **** -0.24
34207 H 97.05643796794128 16.43797789649352 95.26312064951644 H 0.0 **** 0.06
34208 H 97.46086910375284 14.765631911373674 95.71769807042274 H 0.0 **** 0.06
34209 H 98.51152665283219 15.661016765408476 94.59343964315029 H 0.0 **** 0.06
34210 H 96.89617956918953 15.127807466674994 94.06915541539998 H 0.0 **** 0.06
34211 C 132.2110838308538 53.92913854593749 149.19842936756356 C 0.0 **** -0.24
34212 H 131.87723856248442 53.654711448371074 150.19880552363225 H 0.0 **** 0.06
34213 H 132.03131475320043 54.992941062014154 149.03537811815738 H 0.0 **** 0.06
34214 H 131.65911436053653 53.34946733904701 148.45866294832024 H 0.0 **** 0.06
34215 H 133.27753505725525 53.72223516525179 149.1015058354962 H 0.0 **** 0.06
34216 C 70.86589564820326 56.313938716450366 81.55506125221574 C 0.0 **** -0.24
34217 H 70.48991178695564 57.33537713273087 81.49045413079934 H 0.0 **** 0.06
34218 H 71.43578023002391 56.19394717370277 82.47652962413868 H 0.0 **** 0.06
34219 H 71.50911244558648 56.10925780029997 80.69908272282939 H 0.0 **** 0.06
34220 H 70.02667549087658 55.61733173977733 81.55343438300035 H 0.0 **** 0.06
34221 C 68.17132968275412 65.62345061780545 81.08616409785037 C 0.0 **** -0.24
34222 H 68.88052040036314 65.23969210718991 81.81902784730694 H 0.0 **** 0.06
34223 H 67.15492358441146 65.42020327548332 81.42373857907766 H 0.0 **** 0.06
34224 H 68.34073922766746 65.13346936186906 80.12708008118155 H 0.0 **** 0.06
34225 H 68.31031556105343 66.6986494628672 80.9741697777031 H 0.0 **** 0.06
34226 C 105.04145271103597 63.06436858776972 42.60288718763897 C 0.0 **** -0.24
34227 H 105.95219373438498 62.74114888074999 42.098170250753114 H 0.0 **** 0.06
34228 H 105.27083079016082 63.90004736522472 43.265234588845004 H 0.0 **** 0.06
34229 H 104.63789994993972 62.237839610285505 43.18736761481958 H 0.0 **** 0.06
34230 H 104.3067730621931 63.379140022009054 41.86175014132901 H 0.0 **** 0.06
34231 C 69.15265206469478 66.72095196455697 56.503604541801906 C 0.0 **** -0.24
34232 H 68.83938961159087 67.37268768491207 57.318630631100206 H 0.0 **** 0.06
34233 H 69.90009022773081 66.01621203049798 56.86905385444936 H 0.0 **** 0.06
34234 H 69.57995692696177 67.32235700533627 55.70205799822364 H 0.0 **** 0.06
34235 H 68.2902880067036 66.17212778970682 56.12610407541928 H 0.0 **** 0.06
34236 C 29.26391543349689 70.2273319045263 86.13927732407133 C 0.0 **** -0.24
34237 H 29.46869681201204 70.68084719688136 87.10840259875734 H 0.0 **** 0.06
34238 H 30.167919358559857 69.74793826633163 85.76435200590863 H 0.0 **** 0.06
34239 H 28.94298467807954 70.99725747638678 85.43808090983633 H 0.0 **** 0.06
34240 H 28.474885339872486 69.48250726397845 86.24615644063071 H 0.0 **** 0.06
34241 C 81.1137427140338 72.19598989834554 165.3292430518444 C 0.0 **** -0.24
34242 H 81.5131918039512 72.92439845274112 164.62354427273337 H 0.0 **** 0.06
34243 H 81.47526241423078 72.42736457727898 166.33174125907482 H 0.0 **** 0.06
34244 H 81.44322319981569 71.19634242111505 165.04523617847983 H 0.0 **** 0.06
34245 H 80.02447575994053 72.2371113133994 165.31659784020363 H 0.0 **** 0.06
34246 C 169.5332772503742 179.6643783964009 123.25815150626721 C 0.0 **** -0.24
34247 H 169.58173633981977 179.89066962041773 124.32273655783962 H 0.0 **** 0.06
34248 H 169.8413238747302 178.63173013288093 123.0917597245051 H 0.0 **** 0.06
34249 H 170.19844560814136 180.334889030934 122.71254180318607 H 0.0 **** 0.06
34250 H 168.51108389993993 179.8010954670279 122.9033380428894 H 0.0 **** 0.06
34251 C 43.75617033264274 117.90306954746696 48.14334527183155 C 0.0 **** -0.24
34252 H 43.55404969783669 118.94333974026715 48.396358140461416 H 0.0 **** 0.06
34253 H 44.7178000326881 117.83230752364496 47.636062910815355 H 0.0 **** 0.06
34254 H 42.96921851496563 117.52964496759576 47.48673631146971 H 0.0 **** 0.06
34255 H 43.780939089779565 117.3059669693521 49.0555697029161 H 0.0 **** 0.06
34256 C 138.27440463972545 122.46228332489117 60.01320720709971 C 0.0 **** -0.24
34257 H 137.96301791147147 123.49378239167241 59.84646680995182 H 0.0 **** 0.06
34258 H 137.4408294072847 121.89365056588453 60.427263384827555 H 0.0 **** 0.06
34259 H 139.11013270968186 122.4436700070603 60.71274098150381 H 0.0 **** 0.06
34260 H 138.58329111366862 122.0189437660084 59.06656971338566 H 0.0 **** 0.06
34261 C 166.76959393788934 148.0948910896859 64.09937770028878 C 0.0 **** -0.24
34262 H 166.0568816410331 148.91823353979572 64.05624134266851 H 0.0 **** 0.06
34263 H 166.26036258648077 147.19145618063175 64.43496250286205 H 0.0 **** 0.06
34264 H 167.56888371587195 148.34334627043873 64.79743875190785 H 0.0 **** 0.06
34265 H 167.1922023158652 147.92783297312278 63.10832415865136 H 0.0 **** 0.06
34266 C 11.137927442027888 133.85147974941748 140.02422197348517 C 0.0 **** -0.24
34267 H 12.140605783469795 133.45145443208804 140.17675480887783 H 0.0 **** 0.06
34268 H 10.723191233072392 133.44768432481982 139.09957417949227 H 0.0 **** 0.06
34269 H 11.187389787750952 134.93820908183494 139.95658178441187 H 0.0 **** 0.06
34270 H 10.502169387437597 133.5677508507854 140.8627057017183 H 0.0 **** 0.06
34271 C 53.30941063528823 173.965908367711 72.5780788657694 C 0.0 **** -0.24
34272 H 53.27419716803081 174.87038241437313 71.9706695492876 H 0.0 **** 0.06
34273 H 54.08894007796755 173.30456585831223 72.19844967486395 H 0.0 **** 0.06
34274 H 52.3459211144276 173.45724232988454 72.52920963744398 H 0.0 **** 0.06
34275 H 53.52874425234046 174.2308911818526 73.61182555017645 H 0.0 **** 0.06
34276 C 113.88993961169177 50.21120788774826 30.41430712592819 C 0.0 **** -0.24
34277 H 113.05886593662444 50.25264241174274 29.710444864444497 H 0.0 **** 0.06
34278 H 113.51365225681661 50.345036033590006 31.428606993922443 H 0.0 **** 0.06
34279 H 114.60253083001277 51.00340669442632 30.18279645499902 H 0.0 **** 0.06
34280 H 114.38545086597128 49.24298177940891 30.334449787000437 H 0.0 **** 0.06
34281 C 42.47025816281945 143.00185774905583 127.96182466136469 C 0.0 **** -0.24
34282 H 41.9827482058098 142.10510433831485 128.34433966310593 H 0.0 **** 0.06
34283 H 42.99456620625449 142.76365787924794 127.03616961219063 H 0.0 **** 0.06
34284 H 43.18386373606069 143.3693315293869 128.69925565416753 H 0.0 **** 0.06
34285 H 41.72096761951536 143.76898156564107 127.76833027769777 H 0.0 **** 0.06
34286 C 93.94919000492875 64.70238762761576 124.95332656840954 C 0.0 **** -0.24
34287 H 93.54412959496285 65.5800573747488 124.44947217867004 H 0.0 **** 0.06
34288 H 93.78430760567527 63.82067409134042 124.3345581285242 H 0.0 **** 0.06
34289 H 93.4487221387253 64.57240439474364 125.91282624785363 H 0.0 **** 0.06
34290 H 95.01806435043538 64.83917170226427 125.11625325406 H 0.0 **** 0.06
34291 C 31.330482201515025 67.46688597470865 127.61963819408106 C 0.0 **** -0.24
34292 H 32.022066945044415 68.29953670993513 127.75250537304976 H 0.0 **** 0.06
34293 H 31.721536981656712 66.7884734859108 126.86097355608536 H 0.0 **** 0.06
34294 H 30.361183497801875 67.84854215625069 127.30074179163228 H 0.0 **** 0.06
34295 H 31.219128412782794 66.93320182131913 128.5632519442973 H 0.0 **** 0.06
34296 C 93.32753076763798 40.74449469659476 184.48298100099242 C 0.0 **** -0.24
34297 H 93.16563644536824 41.78399163277629 184.19660584857013 H 0.0 **** 0.06
34298 H 93.42494680693487 40.1328088439011 183.58524276924808 H 0.0 **** 0.06
34299 H 92.47913188808879 40.394438618535276 185.07149052554468 H 0.0 **** 0.06
34300 H 94.23866617364563 40.66851161656513 185.0757871989698 H 0.0 **** 0.06
34301 C 162.9405255918607 131.54623790467286 38.2755311297816 C 0.0 **** -0.24
34302 H 163.9533902887585 131.75705690903095 38.6195192551196 H 0.0 **** 0.06
34303 H 162.53319550180066 132.43060498451683 37.78399123627008 H 0.0 **** 0.06
34304 H 162.31555253768607 131.2834008287699 39.12798621546921 H 0.0 **** 0.06
34305 H 162.96264317143513 130.71625980717664 37.570179087727155 H 0.0 **** 0.06
34306 C 158.75134033244436 155.8619821613775 167.0500042185361 C 0.0 **** -0.24
34307 H 159.33915185452204 156.61816841105878 167.57174205435325 H 0.0 **** 0.06
34308 H 158.29347953990032 156.30470399983352 166.1654697476969 H 0.0 **** 0.06
34309 H 157.97202270232262 155.48746658783972 167.7139902793897 H 0.0 **** 0.06
34310 H 159.40076214630275 155.0400216060167 166.75128113724145 H 0.0 **** 0.06
34311 C 121.45398165453797 62.66013014991134 1.2914168192075977 C 0.0 **** -0.24
34312 H 121.77607723347207 62.70909029718925 0.25053414486635006 H 0.0 **** 0.06
34313 H 120.64959549710012 61.930435408539495 1.3884110307077435 H 0.0 **** 0.06
34314 H 121.09735041780344 63.63949880358365 1.6078698561707938 H 0.0 **** 0.06
34315 H 122.29475537549588 62.359882159643746 1.9171300675767213 H 0.0 **** 0.06
34316 C 18.49514580979522 138.35518224086792 6.076207689956334 C 0.0 **** -0.24
34317 H 17.603674063339867 137.9081775107959 5.634926273495182 H 0.0 **** 0.06
34318 H 18.20859102322163 138.96969869490408 6.929972446187151 H 0.0 **** 0.06
34319 H 18.995682441366455 138.97500810783504 5.3326740155324615 H 0.0 **** 0.06
34320 H 19.16982700164175 137.5662810137797 6.406441652051626 H 0.0 **** 0.06
34321 C 12.171308264319066 119.88230192908678 98.32470647034218 C 0.0 **** -0.24
34322 H 13.020901653060442 119.77416958082078 97.65161004769176 H 0.0 **** 0.06
34323 H 11.75891205342522 120.88684522192996 98.23085819714275 H 0.0 **** 0.06
34324 H 12.498187465732975 119.71754772175878 99.35142035594824 H 0.0 **** 0.06
34325 H 11.406448335526697 119.14920236015466 98.06548896982135 H 0.0 **** 0.06
34326 C 13.102235389952043 62.21838656148367 32.890662597076386 C 0.0 **** -0.24
34327 H 14.043645899168105 62.73909646267553 32.71200693658966 H 0.0 **** 0.06
34328 H 12.565155111009766 62.70809364049924 33.70290154679634 H 0.0 **** 0.06
34329 H 13.306447958302869 61.1834009486648 33.16186792627565 H 0.0 **** 0.06
34330 H 12.495759344302783 62.24590501489136 31.986039540428294 H 0.0 **** 0.06
34331 C 81.59759047329908 45.036764595609526 14.321089957373488 C 0.0 **** -0.24
34332 H 82.13106735294816 44.19812598851719 14.76866461270015 H 0.0 **** 0.06
34333 H 82.07880836247412 45.31468831517003 13.383572968848256 H 0.0 **** 0.06
34334 H 81.61378850204854 45.88439773671783 15.005393266092653 H 0.0 **** 0.06
34335 H 80.56482404743161 44.74661028384867 14.12686236271179 H 0.0 **** 0.06
34336 C 168.9786436921697 63.47762698137842 124.97882469481573 C 0.0 **** -0.24
34337 H 169.84735657342102 63.88649050442403 124.46383548466014 H 0.0 **** 0.06
34338 H 168.5866828051878 62.631523339762865 124.41421362594468 H 0.0 **** 0.06
34339 H 168.21023459012315 64.24727793678 125.06105764700482 H 0.0 **** 0.06
34340 H 169.2697335918405 63.14758955729437 125.97640494225823 H 0.0 **** 0.06
34341 C 142.83414056602004 172.9363003386027 112.88746257067645 C 0.0 **** -0.24
34342 H 141.96545938972878 172.44167319989947 112.45449913493478 H 0.0 **** 0.06
34343 H 143.29300214835388 172.28239400066576 113.62893671619183 H 0.0 **** 0.06
34344 H 142.5228771759186 173.8652773315696 113.36543873925756 H 0.0 **** 0.06
34345 H 143.55547542720896 173.15724563126273 112.10106410577872 H 0.0 **** 0.06
34346 C 128.32198520619426 44.55758659457598 137.07593898218886 C 0.0 **** -0.24
34347 H 128.4872516792699 43.817580281211775 136.29340719885784 H 0.0 **** 0.06
34348 H 128.87320679266531 44.26919226214375 137.97164812289247 H 0.0 **** 0.06
34349 H 127.25859097624523 44.612248507542745 137.30581745889742 H 0.0 **** 0.06
34350 H 128.67091512075024 45.53226947598381 136.73299789408048 H 0.0 **** 0.06
34351 C 173.3570290522268 109.95143764295183 130.5299668301226 C 0.0 **** -0.24
34352 H 173.26680783486344 110.43801372251748 129.55895951537838 H 0.0 **** 0.06
34353 H 173.7043927415355 110.67497221858217 131.26748940501216 H 0.0 **** 0.06
34354 H 174.0735330934671 109.13207849701176 130.4596535962446 H 0.0 **** 0.06
34355 H 172.38582322864735 109.55988126962099 130.83221707955704 H 0.0 **** 0.06
34356 C 97.8886174054432 174.74180220465513 105.55878069090393 C 0.0 **** -0.24
34357 H 97.60255897257082 175.7937288136578 105.5756139711879 H 0.0 **** 0.06
34358 H 98.3292900560948 174.4698799034033 106.51834687414858 H 0.0 **** 0.06
34359 H 98.6160863470468 174.5755324202755 104.76419044165722 H 0.0 **** 0.06
34360 H 97.00542166257338 174.1286145855482 105.37765199344052 H 0.0 **** 0.06
34361 C 185.037043711273 142.11580845745874 65.343421999817 C 0.0 **** -0.24
34362 H 185.58993749648658 142.03420451775924 64.40748576903579 H 0.0 **** 0.06
34363 H 185.0410976558168 143.1536216091194 65.67771350258609 H 0.0 **** 0.06
34364 H 185.50768034869185 141.4877465435597 66.09951110793722 H 0.0 **** 0.06
34365 H 184.00915353152791 141.78806244892246 65.1867991870236 H 0.0 **** 0.06
34366 C 77.59848262898674 26.270933098016698 120.51790425736108 C 0.0 **** -0.24
34367 H 77.37202465344626 25.206841490985767 120.59422091622965 H 0.0 **** 0.06
34368 H 77.58888325403706 26.716208091283193 121.51305721553346 H 0.0 **** 0.06
34369 H 76.84838102603703 26.757383631439083 119.89405184187488 H 0.0 **** 0.06
34370 H 78.58298308480357 26.40180113178812 120.07021380499945 H 0.0 **** 0.06
34371 C 109.7189949075517 72.45251678015484 136.39759119507016 C 0.0 **** -0.24
34372 H 108.92758959500513 72.76105552342716 135.714483707417 H 0.0 **** 0.06
34373 H 110.26879991688948 71.61679574878349 135.9634089746669 H 0.0 **** 0.06
34374 H 109.27989599766939 72.14432939872222 137.3463119350485 H 0.0 **** 0.06
34375 H 110.39873662513666 73.28784529125807 136.56644570308276 H 0.0 **** 0.06
34376 C 2.3792236298505642 105.94816139564124 81.17193145908055 C 0.0 **** -0.24
34377 H 2.7011865367448777 106.89773251930605 80.74362205220424 H 0.0 **** 0.06
34378 H 2.2415274518337966 105.21860811914111 80.37300894924746 H 0.0 **** 0.06
34379 H 1.4378803560514868 106.08885407312921 81.70325506825765 H 0.0 **** 0.06
34380 H 3.1379929324814526 105.58702944361274 81.86644080489832 H 0.0 **** 0.06
34381 C 46.56617647215103 142.83695067172596 11.263281350009265 C 0.0 **** -0.24
34382 H 46.10922882237736 142.3869693273536 12.145003536152558 H 0.0 **** 0.06
34383 H 45.9711492300012 142.5952211079284 10.382569840303063 H 0.0 **** 0.06
34384 H 47.576145193959235 142.44476112306245 11.138999687633031 H 0.0 **** 0.06
34385 H 46.60910299795182 143.91805853988524 11.388086827973325 H 0.0 **** 0.06
34386 C 101.23418822891603 184.46870900227796 69.50940432204744 C 0.0 **** -0.24
34387 H 101.86465571990152 183.61360796933587 69.26252911599137 H 0.0 **** 0.06
34388 H 100.48267143956491 184.60174833810362 68.73081172765951 H 0.0 **** 0.06
34389 H 101.84943165148763 185.3649667473257 69.57851952307662 H 0.0 **** 0.06
34390 H 100.74039012619772 184.2915910782392 70.46423834355552 H 0.0 **** 0.06
34391 C 145.5347513311715 28.2777591616084 173.45339432209488 C 0.0 **** -0.24
34392 H 144.46214112193792 28.470124292507762 173.45966685776511 H 0.0 **** 0.06
34393 H 145.81441216332877 27.810104721590278 172.50938822792418 H 0.0 **** 0.06
34394 H 145.78954850309697 27.612109847421152 174.2782559847205 H 0.0 **** 0.06
34395 H 146.0728833611451 29.219431298875406 173.56694561104197 H 0.0 **** 0.06
34396 C 179.60358078840008 180.3705401377255 146.0982787119329 C 0.0 **** -0.24
34397 H 178.62062217688649 180.04000191926758 146.4323194150226 H 0.0 **** 0.06
34398 H 179.5889650213754 180.51976416189802 145.01820604941102 H 0.0 **** 0.06
34399 H 180.34708600911995 179.61567476628932 146.35122452421496 H 0.0 **** 0.06
34400 H 179.85697483087745 181.30962654677407 146.59105711961058 H 0.0 **** 0.06
34401 C 32.47153788965845 175.78904643090598 121.17793319710175 C 0.0 **** -0.24
34402 H 32.877711087969004 175.74537548587173 120.16719309495782 H 0.0 **** 0.06
34403 H 32.85453271371195 176.67524484716614 121.68415222049289 H 0.0 **** 0.06
34404 H 32.77026943906651 174.8967361106815 121.72770415600398 H 0.0 **** 0.06
34405 H 31.38343093662472 175.8396782343816 121.13062506699585 H 0.0 **** 0.06
34406 C 80.80845515918772 145.72751690815173 165.60734625073817 C 0.0 **** -0.24
34407 H 80.03852615779806 145.19895780498456 166.16969398824023 H 0.0 **** 0.06
34408 H 80.45439801103794 146.7291014788654 165.36081374468768 H 0.0 **** 0.06
34409 H 81.02631507405962 145.18225172436746 164.68995306475472 H 0.0 **** 0.06
34410 H 81.71332592670893 145.79991052787756 166.21164456156947 H 0.0 **** 0.06
34411 C 137.84559008492022 160.41197610639477 115.25343040034649 C 0.0 **** -0.24
34412 H 136.8092195879247 160.10021655139235 115.38883192490285 H 0.0 **** 0.06
34413 H 138.39283338768712 159.63218943948797 114.7252317197186 H 0.0 **** 0.06
34414 H 138.30337113810032 160.5818049028383 116.22787847326758 H 0.0 **** 0.06
34415 H 137.87473565097872 161.3340297272057 114.67352437321348 H 0.0 **** 0.06
34416 C 6.021706126208812 119.55105443776735 105.46169907342956 C 0.0 **** -0.24
34417 H 6.21106419413826 118.47769976259382 105.47857004885451 H 0.0 **** 0.06
34418 H 5.276353678524345 119.77556628598013 104.69740294531375 H 0.0 **** 0.06
34419 H 6.946956766069576 120.07913715900874 105.23323631325 H 0.0 **** 0.06
34420 H 5.65116551086885 119.86990374345073 106.43594397912567 H 0.0 **** 0.06
34421 C 15.132691142130511 69.50297569742598 175.63670825019307 C 0.0 **** -0.24
34422 H 15.084136470471634 69.84640682397496 174.6030038017069 H 0.0 **** 0.06
34423 H 16.03208983016748 69.89798408981333 176.10818434905894 H 0.0 **** 0.06
34424 H 15.158460924788017 68.41417465511843 175.65639411243413 H 0.0 **** 0.06
34425 H 14.253372681993255 69.85528950245192 176.17682714007637 H 0.0 **** 0.06
34426 C 121.25729454878395 58.979630247033256 72.85536164998798 C 0.0 **** -0.24
34427 H 122.03484616578181 58.26498114330364 72.58461358013942 H 0.0 **** 0.06
34428 H 120.36388056952354 58.78588542613156 72.26105214332888 H 0.0 **** 0.06
34429 H 121.61018430444541 59.99238475580022 72.6604450246066 H 0.0 **** 0.06
34430 H 121.01982566500145 58.87406397570507 73.91350513392787 H 0.0 **** 0.06
34431 C 172.17199501702237 52.558805056372876 31.483678818333914 C 0.0 **** -0.24
34432 H 172.8727424307211 52.365519313716135 32.29660998135073 H 0.0 **** 0.06
34433 H 172.725660584033 52.78069724179831 30.571647213423034 H 0.0 **** 0.06
34434 H 171.54140649536478 53.408900213158006 31.742722611575303 H 0.0 **** 0.06
34435 H 171.54907611822676 51.67810486650055 31.325781394599247 H 0.0 **** 0.06
34436 C 88.24342154923055 31.64298292719417 155.57233183862007 C 0.0 **** -0.24
34437 H 88.62812484435268 31.864384965883602 156.56742874532762 H 0.0 **** 0.06
34438 H 89.00882185376769 31.86455733667819 154.8284154964906 H 0.0 **** 0.06
34439 H 87.36190276170127 32.25349267835102 155.38017096819357 H 0.0 **** 0.06
34440 H 87.9746926047198 30.588103423484085 155.5135070244135 H 0.0 **** 0.06
34441 C 144.4895809821025 7.532849535296165 119.95425931448848 C 0.0 **** -0.24
34442 H 145.08636122734603 6.951383112310111 119.25161253438047 H 0.0 **** 0.06
34443 H 143.95131389900553 8.312265621558225 119.41518096383949 H 0.0 **** 0.06
34444 H 145.14536050642045 7.989999954798627 120.69546446859452 H 0.0 **** 0.06
34445 H 143.7770001082181 6.877910516390642 120.45456993435381 H 0.0 **** 0.06
34446 C 182.21440180578946 112.36942923468065 162.660279889177 C 0.0 **** -0.24
34447 H 181.13797393056427 112.20391057355089 162.6985415150795 H 0.0 **** 0.06
34448 H 182.61817775583677 111.91698288713944 161.75408803953613 H 0.0 **** 0.06
34449 H 182.68239883686462 111.91616408154901 163.5335683972896 H 0.0 **** 0.06
34450 H 182.41761093127212 113.43988934482157 162.65310036296674 H 0.0 **** 0.06
34451 C 45.33856317967084 56.85775066561587 71.12320746952567 C 0.0 **** -0.24
34452 H 44.60967171658302 56.55850340787765 71.87703218472751 H 0.0 **** 0.06
34453 H 45.15925560530998 57.89452278898196 70.83614692790061 H 0.0 **** 0.06
34454 H 45.239970473399396 56.21645355975102 70.24816642572272 H 0.0 **** 0.06
34455 H 46.34457862741914 56.762164626715446 71.5328934646731 H 0.0 **** 0.06
34456 C 178.07816035854088 44.606350617816986 59.57590286578943 C 0.0 **** -0.24
34457 H 177.84351503614005 43.54276258349796 59.59219368000538 H 0.0 **** 0.06
34458 H 178.88267517296538 44.7905060803505 58.86294839612955 H 0.0 **** 0.06
34459 H 178.39332232105858 44.92401020221871 60.56986397735193 H 0.0 **** 0.06
34460 H 177.1931278921586 45.169537807498045 59.278596450421276 H 0.0 **** 0.06
34461 C 117.85040432818109 38.45673142546261 37.22590572308886 C 0.0 **** -0.24
34462 H 117.89811982613001 37.644482419614505 36.50098770505399 H 0.0 **** 0.06
34463 H 117.40062649672312 38.093276372340284 38.150450863487904 H 0.0 **** 0.06
34464 H 117.2451291690556 39.26936796034319 36.822809909623274 H 0.0 **** 0.06
34465 H 118.8574624290152 38.820430653694075 37.430608488551826 H 0.0 **** 0.06
34466 C 49.269574172939684 141.5041358098262 178.98581691111545 C 0.0 **** -0.24
34467 H 49.65460988880301 142.47648602690413 178.67726880096004 H 0.0 **** 0.06
34468 H 49.58938048040028 140.7435849702615 178.27233618218784 H 0.0 **** 0.06
34469 H 48.180209059685865 141.5377558373528 179.01756160501037 H 0.0 **** 0.06
34470 H 49.65409726286941 141.25871640478653 179.97610105630358 H 0.0 **** 0.06
34471 C 18.136356275245873 43.579719697647846 162.7691325401478 C 0.0 **** -0.24
34472 H 17.499031005676215 42.69480877760043 162.7907558497411 H 0.0 **** 0.06
34473 H 17.905157793361866 44.21338308640924 163.62627510344993 H 0.0 **** 0.06
34474 H 17.95746941076817 44.13408206593414 161.8488477083675 H 0.0 **** 0.06
34475 H 19.181953860695756 43.27465582503066 162.81328104778635 H 0.0 **** 0.06
34476 C 16.590856490549925 54.659975053293934 151.82839522414355 C 0.0 **** -0.24
34477 H 16.18959553188475 54.325641573013215 152.78563038574853 H 0.0 **** 0.06
34478 H 16.22308596446598 55.66384870225792 151.61249724353934 H 0.0 **** 0.06
34479 H 16.26856635995577 53.97728729410059 151.04201626720854 H 0.0 **** 0.06
34480 H 17.67921427458728 54.672720932146234 151.8754506169799 H 0.0 **** 0.06
34481 C 103.87500640113193 123.4778971717788 141.59845722501097 C 0.0 **** -0.24
34482 H 103.03839794859208 123.14120421699408 140.9852398537244 H 0.0 **** 0.06
34483 H 104.5014132749378 122.62438402874722 141.85700721410444 H 0.0 **** 0.06
34484 H 103.49426535594911 123.9402096744958 142.50997837439917 H 0.0 **** 0.06
34485 H 104.46358561155164 124.20627431206117 141.04117847665242 H 0.0 **** 0.06
34486 C 161.7578012649942 108.17911032023818 10.486936124500986 C 0.0 **** -0.24
34487 H 161.73244024908212 108.52784893892675 11.518787145800665 H 0.0 **** 0.06
34488 H 162.0259442508844 107.12255502383238 10.467121474820637 H 0.0 **** 0.06
34489 H 162.49652201919992 108.75247799498482 9.927397469669408 H 0.0 **** 0.06
34490 H 160.77507940949218 108.31329612256019 10.033236526524249 H 0.0 **** 0.06
34491 C 145.5998232690489 65.41852754765193 125.98629694685748 C 0.0 **** -0.24
34492 H 145.25075251428197 65.30736946094692 127.01327838330353 H 0.0 **** 0.06
34493 H 144.7529008254282 65.34076920208884 125.30470808830476 H 0.0 **** 0.06
34494 H 146.32044410836716 64.63254256657507 125.76114906170271 H 0.0 **** 0.06
34495 H 146.07506084665195 66.39246752931206 125.86708061811142 H 0.0 **** 0.06
34496 C 8.795541861191893 101.24873479293984 16.041193308501022 C 0.0 **** -0.24
34497 H 8.458411713877936 102.10970708853853 15.46404226110647 H 0.0 **** 0.06
34498 H 9.058612462366959 101.56820652915076 17.049399152074812 H 0.0 **** 0.06
34499 H 9.667627066210564 100.80760204063284 15.559136632783378 H 0.0 **** 0.06
34500 H 7.994804852520318 100.50942917576157 16.09091114260434 H 0.0 **** 0.06
34501 C 162.64133439488037 47.25941880990092 85.86314770043775 C 0.0 **** -0.24
34502 H 162.91344577198555 46.93960666549128 84.85695687865727 H 0.0 **** 0.06
34503 H 162.18320623676976 46.4258079849771 86.39769517871208 H 0.0 **** 0.06
34504 H 161.9322018339924 48.085022432979144 85.80184488249976 H 0.0 **** 0.06
34505 H 163.53536420261946 47.58539997193495 86.39492430199202 H 0.0 **** 0.06
34506 C 41.500915866441005 2.0544413571701625 74.61697788771252 C 0.0 **** -0.24
34507 H 41.71456780629359 2.9429028320782322 75.21149906347318 H 0.0 **** 0.06
34508 H 41.669590826046914 1.1635516757729079 75.22212142650797 H 0.0 **** 0.06
34509 H 42.15667904473105 2.033782627686591 73.74721515835368 H 0.0 **** 0.06
34510 H 40.46200096910832 2.080068390760758 74.28844257701209 H 0.0 **** 0.06
34511 C 88.69063142909312 89.76188530457362 81.10824713152374 C 0.0 **** -0.24
34512 H 87.74258660832896 89.56149932568046 81.60631722066665 H 0.0 **** 0.06
34513 H 88.97979509749382 90.79901596770593 81.27895955348816 H 0.0 **** 0.06
34514 H 88.58234422215043 89.58644068526498 80.0380492886577 H 0.0 **** 0.06
34515 H 89.4586438074843 89.09959708697885 81.50910457841411 H 0.0 **** 0.06
34516 C 142.3942380481176 111.0092103464629 121.30925717631511 C 0.0 **** -0.24
34517 H 143.31929252830273 110.93999992517512 121.88067949232367 H 0.0 **** 0.06
34518 H 141.57385922509894 111.27388559278275 121.97781458740998 H 0.0 **** 0.06
34519 H 142.18502223348327 110.04846604422899 120.83948331935086 H 0.0 **** 0.06
34520 H 142.49823325404952 111.77540049376545 120.53998605599308 H 0.0 **** 0.06
34521 C 62.69244009527273 163.02216922869746 60.40436949875077 C 0.0 **** -0.24
34522 H 63.274573840987614 162.10077847054617 60.38999122471243 H 0.0 **** 0.06
34523 H 62.336272866913106 163.2434086755312 59.397493432451924 H 0.0 **** 0.06
34524 H 63.31897764864442 163.8419109433903 60.755871387891446 H 0.0 **** 0.06
34525 H 61.83984204610272 162.9033357608173 61.072931040152824 H 0.0 **** 0.06
34526 C 94.36709912483347 175.10957088003363 168.08254847066942 C 0.0 **** -0.24
34527 H 95.03977950546151 174.45999892059226 167.52152016009245 H 0.0 **** 0.06
34528 H 93.33840665623559 174.77698444386513 167.93768828679873 H 0.0 **** 0.06
34529 H 94.47136100528736 176.1342606461934 167.7266430162928 H 0.0 **** 0.06
34530 H 94.61853716525316 175.0645517229752 169.142171304145 H 0.0 **** 0.06
34531 C 140.80171296616862 175.4370571812882 39.43248161582477 C 0.0 **** -0.24
34532 H 139.7335285999751 175.2213041500076 39.442286802857126 H 0.0 **** 0.06
34533 H 140.95462677256728 176.50943623263188 39.309116655076764 H 0.0 **** 0.06
34534 H 141.27213055026766 174.90486478642157 38.60524650241311 H 0.0 **** 0.06
34535 H 141.24652455783269 175.11121003522044 40.3732593117324 H 0.0 **** 0.06
34536 C 180.02327457664046 172.393702733008 121.1436143953933 C 0.0 **** -0.24
34537 H 180.08356332212037 171.64735559896258 120.35118736504229 H 0.0 **** 0.06
34538 H 180.5966400411968 172.05496964435423 122.00589409192169 H 0.0 **** 0.06
34539 H 178.98097046774046 172.53201812255043 121.43210941619752 H 0.0 **** 0.06
34540 H 180.4293245365816 173.33898190032812 120.78384073979906 H 0.0 **** 0.06
34541 C 63.69867769945431 150.1052170472812 161.96490665358766 C 0.0 **** -0.24
34542 H 64.22259849328837 150.51727709913303 162.82718089725722 H 0.0 **** 0.06
34543 H 64.13815223013457 150.50309198178604 161.04920032373826 H 0.0 **** 0.06
34544 H 62.64585626076469 150.38330457791272 162.0129140069973 H 0.0 **** 0.06
34545 H 63.78788263309423 149.01869238382713 161.96949020379355 H 0.0 **** 0.06
34546 C 84.22713547703681 116.3965000993242 79.3619941756624 C 0.0 **** -0.24
34547 H 83.23019783787569 116.55160234902208 79.77395775165496 H 0.0 **** 0.06
34548 H 84.6654159662144 115.49934084103391 79.80082657793582 H 0.0 **** 0.06
34549 H 84.85373635993055 117.257988878897 79.59317328964937 H 0.0 **** 0.06
34550 H 84.15903653868878 116.27569241078906 78.28105967761462 H 0.0 **** 0.06
34551 C 23.54662699663156 3.220354506825494 18.26529085417107 C 0.0 **** -0.24
34552 H 23.32731892657337 4.274716078423246 18.434456504106578 H 0.0 **** 0.06
34553 H 24.144400230881132 3.1147107578020865 17.35986723703917 H 0.0 **** 0.06
34554 H 22.6134862391702 2.669516182154716 18.152251915542564 H 0.0 **** 0.06
34555 H 24.102394758307327 2.8250752005823188 19.11561069398101 H 0.0 **** 0.06
34556 C 131.49380020771446 163.78528412176104 97.81934780540008 C 0.0 **** -0.24
34557 H 132.38270748650245 163.30357583256696 98.2261847844285 H 0.0 **** 0.06
34558 H 131.51454903997677 163.725162697085 96.73161840835691 H 0.0 **** 0.06
34559 H 131.4760342580742 164.8319462327333 98.12485424664898 H 0.0 **** 0.06
34560 H 130.60335697509322 163.2818323735456 98.1947163296128 H 0.0 **** 0.06
34561 C 32.44587758607926 168.64851066789805 27.90312390029854 C 0.0 **** -0.24
34562 H 32.19952046428659 168.4669963580772 26.85661584739222 H 0.0 **** 0.06
34563 H 33.52916137258694 168.686827587294 28.019211898636968 H 0.0 **** 0.06
34564 H 32.041294970694594 167.84335109757382 28.51609153964698 H 0.0 **** 0.06
34565 H 32.01247365379962 169.59790191994898 28.217608629297516 H 0.0 **** 0.06
34566 C 87.5920396207286 183.27580476266382 102.79506453503477 C 0.0 **** -0.24
34567 H 87.63260436232201 184.31506113569287 102.46934065119994 H 0.0 **** 0.06
34568 H 88.31945503093726 182.69099809559566 102.23204202485711 H 0.0 **** 0.06
34569 H 86.59217311563128 182.87823857970923 102.61944426703037 H 0.0 **** 0.06
34570 H 87.82433417936437 183.21795764285486 103.85847993524165 H 0.0 **** 0.06
34571 C 69.10704588513576 61.854182635061974 7.88713684858925 C 0.0 **** -0.24
34572 H 68.0797866967452 61.9258827127035 7.529912801646049 H 0.0 **** 0.06
34573 H 69.78967631559175 62.159256834187985 7.093411571681656 H 0.0 **** 0.06
34574 H 69.3209863340431 60.824865499626355 8.173577178719825 H 0.0 **** 0.06
34575 H 69.23815865071361 62.507049721428004 8.750336352917856 H 0.0 **** 0.06
34576 C 159.33315512960064 1.8090292665445986 120.57465803434307 C 0.0 **** -0.24
34577 H 159.39899291547493 1.3659832890020027 121.56881850058575 H 0.0 **** 0.06
34578 H 158.65535126368712 1.2184839644147019 119.95810022380765 H 0.0 **** 0.06
34579 H 160.32197043583204 1.82298863441099 120.11718807044879 H 0.0 **** 0.06
34580 H 158.95632808761994 2.8290673997825877 120.65587979497998 H 0.0 **** 0.06
34581 C 64.0061653774795 49.88980382211855 178.2537938413561 C 0.0 **** -0.24
34582 H 63.0070166810948 50.30949847949768 178.1395939069815 H 0.0 **** 0.06
34583 H 64.41445341777627 49.65211536046593 177.27189954204076 H 0.0 **** 0.06
34584 H 63.95179529857212 48.982059856237925 178.85479479935515 H 0.0 **** 0.06
34585 H 64.64979441352055 50.61575666620587 178.75006542198318 H 0.0 **** 0.06
34586 C 85.33030676276665 75.89062618009858 38.9828707074705 C 0.0 **** -0.24
34587 H 85.8807393271732 75.01016441937527 38.65023207270215 H 0.0 **** 0.06
34588 H 84.34404333931413 75.58837866934044 39.33765699596806 H 0.0 **** 0.06
34589 H 85.22072682770222 76.58536648852353 38.15131105417521 H 0.0 **** 0.06
34590 H 85.87617838794601 76.3748962328543 39.79260834997534 H 0.0 **** 0.06
34591 C 159.2947000029173 50.621973616244475 10.054990828509261 C 0.0 **** -0.24
34592 H 159.5471066152556 49.6137317780441 10.382923220194215 H 0.0 **** 0.06
34593 H 159.6084856195104 51.34012961869803 10.812959773526892 H 0.0 **** 0.06
34594 H 158.21742468441275 50.69668901799042 9.9059443073293 H 0.0 **** 0.06
34595 H 159.80665315655497 50.836386464291195 9.116312241828055 H 0.0 **** 0.06
34596 C 5.081223097196727 62.894826197602015 2.991316215421449 C 0.0 **** -0.24
34597 H 4.764872952011871 62.186296213725086 3.757192331095638 H 0.0 **** 0.06
34598 H 4.610580471252206 62.637421007059174 2.0417070933208947 H 0.0 **** 0.06
34599 H 6.165188990290403 62.85111499880128 2.8834336517626014 H 0.0 **** 0.06
34600 H 4.785266932406046 63.902583199809925 3.2835612287994707 H 0.0 **** 0.06
34601 C 58.1270109110925 168.31017226158207 69.35935297271816 C 0.0 **** -0.24
34602 H 57.192985264922044 167.76675155827564 69.50320498759224 H 0.0 **** 0.06
34603 H 58.10717776747612 169.2273871966401 69.94740973643339 H 0.0 **** 0.06
34604 H 58.24408505565401 168.5558885046023 68.30385710010361 H 0.0 **** 0.06
34605 H 58.96199528846154 167.68847682374252 69.68194749711162 H 0.0 **** 0.06
34606 C 74.52426984732642 48.63579928166624 82.50973730770583 C 0.0 **** -0.24
34607 H 75.50249485962394 48.16161448226808 82.42220447066732 H 0.0 **** 0.06
34608 H 74.50606039649782 49.54316078987583 81.90461342387009 H 0.0 **** 0.06
34609 H 74.33527344536326 48.88956747814967 83.55254333587347 H 0.0 **** 0.06
34610 H 73.75537654840004 47.948965203860155 82.15747408071205 H 0.0 **** 0.06
34611 C 169.34796802823172 98.31196559820914 31.758457504749984 C 0.0 **** -0.24
34612 H 168.82979477386112 99.22145078915871 32.06374842843489 H 0.0 **** 0.06
34613 H 169.99441964914936 98.53137155295023 30.907799094738493 H 0.0 **** 0.06
34614 H 168.61724793090355 97.55516691366846 31.474622635841527 H 0.0 **** 0.06
34615 H 169.95039454044587 97.9423133026561 32.58744653266554 H 0.0 **** 0.06
34616 C 158.85203724664208 38.31850750576106 42.519560449156614 C 0.0 **** -0.24
34617 H 158.40353613653548 37.44017636636519 42.98344030390399 H 0.0 **** 0.06
34618 H 159.68329504069237 38.010560381005135 41.885915128601965 H 0.0 **** 0.06
34619 H 159.21474631193973 38.993051342636576 43.29518478525449 H 0.0 **** 0.06
34620 H 158.10381682683584 38.83083254678658 41.914732688905104 H 0.0 **** 0.06
34621 C 99.05058547208438 20.23289829549148 101.78996232321134 C 0.0 **** -0.24
34622 H 98.37516185827195 19.835532056257705 102.54698435343204 H 0.0 **** 0.06
34623 H 98.53011660498981 20.984013235058 101.1951473199901 H 0.0 **** 0.06
34624 H 99.38557249481232 19.42321607778149 101.14111196942667 H 0.0 **** 0.06
34625 H 99.91319837520882 20.688561731274064 102.27649719799984 H 0.0 **** 0.06
34626 C 175.8630873834916 86.67002983960786 25.8886445128054 C 0.0 **** -0.24
34627 H 176.3149675718301 87.6430632200191 25.69318166151163 H 0.0 **** 0.06
34628 H 176.07677478330706 85.99748230153206 25.057835346701097 H 0.0 **** 0.06
34629 H 174.78439515685267 86.78492065646536 25.995927075079464 H 0.0 **** 0.06
34630 H 176.2777418254232 86.2560738172633 26.808434977251636 H 0.0 **** 0.06
34631 C 71.25594885194894 68.24955171110973 136.47699372470834 C 0.0 **** -0.24
34632 H 72.10266016297273 67.83905568405939 137.02650561101552 H 0.0 **** 0.06
34633 H 70.32714791838089 67.91715879360972 136.93946870906592 H 0.0 **** 0.06
34634 H 71.29233606207875 67.90400656996226 135.44389117039935 H 0.0 **** 0.06
34635 H 71.30386674534867 69.3381322029419 136.49784420499157 H 0.0 **** 0.06
34636 C 48.06581702141706 151.6614225973006 118.78170413600412 C 0.0 **** -0.24
34637 H 47.904049710647044 151.4592673364291 119.84076030263151 H 0.0 **** 0.06
34638 H 48.441430704172944 152.67775492480297 118.65888170586459 H 0.0 **** 0.06
34639 H 47.12433612220626 151.55373229760426 118.2437451587275 H 0.0 **** 0.06
34640 H 48.79397062401026 150.95466279475886 118.38423933792416 H 0.0 **** 0.06
34641 C 57.34811657188004 64.09394228641334 174.838412206769 C 0.0 **** -0.24
34642 H 57.58136939036861 63.68627750842872 175.82228716181612 H 0.0 **** 0.06
34643 H 56.823198626151964 63.34171822742789 174.2495493369252 H 0.0 **** 0.06
34644 H 58.2733568798362 64.37158877904685 174.33230827430978 H 0.0 **** 0.06
34645 H 56.71648308157722 64.97530614096684 174.9501809717536 H 0.0 **** 0.06
34646 C 179.9402775510594 42.983097912709695 68.69353491066853 C 0.0 **** -0.24
34647 H 180.5017664400848 43.69406104858183 69.29992836279975 H 0.0 **** 0.06
34648 H 179.66404941573407 43.45139922020792 67.74858291360476 H 0.0 **** 0.06
34649 H 179.03813409639056 42.68325271464471 69.22727025800505 H 0.0 **** 0.06
34650 H 180.55626000831066 42.10572453035306 68.49842237037952 H 0.0 **** 0.06
34651 C 59.57781837554293 108.83330102473819 115.88072531327869 C 0.0 **** -0.24
34652 H 60.66255880460588 108.92604199521064 115.83782248712778 H 0.0 **** 0.06
34653 H 59.13552260377817 109.33268595285638 115.01843097927998 H 0.0 **** 0.06
34654 H 59.20975673885765 109.2965422160169 116.79676931911077 H 0.0 **** 0.06
34655 H 59.303376124929315 107.77870945662075 115.8710596141786 H 0.0 **** 0.06
34656 C 14.319461413318749 141.58446371236573 14.686402849159663 C 0.0 **** -0.24
34657 H 13.818693507810814 141.3556184734951 13.745740464574624 H 0.0 **** 0.06
34658 H 15.171005759215916 140.91589818945585 14.816305711045743 H 0.0 **** 0.06
34659 H 13.62077744764128 141.4467201022049 15.512104246329613 H 0.0 **** 0.06
34660 H 14.666441601952279 142.61762587104027 14.671874806301247 H 0.0 **** 0.06
34661 C 154.44196762976972 25.53713742051005 30.84197060890986 C 0.0 **** -0.24
34662 H 153.68166856295656 24.765011291717173 30.723122218954572 H 0.0 **** 0.06
34663 H 154.01328072820155 26.390636167746948 31.367315062587778 H 0.0 **** 0.06
34664 H 154.79475822226632 25.853105094924672 29.86010218787449 H 0.0 **** 0.06
34665 H 155.27714120211436 25.137872400484525 31.418461666874563 H 0.0 **** 0.06
34666 C 80.91016828702043 163.4687029430471 173.38963679506847 C 0.0 **** -0.24
34667 H 80.0742366903642 162.77894988358324 173.2763697309674 H 0.0 **** 0.06
34668 H 80.84152138762771 163.96615021758953 174.35765962716548 H 0.0 **** 0.06
34669 H 80.87685408821021 164.21426304225403 172.59470869449208 H 0.0 **** 0.06
34670 H 81.84812553450585 162.91684887133397 173.33082658911871 H 0.0 **** 0.06
34671 C 150.87411892412217 13.319428817831067 85.16943566997867 C 0.0 **** -0.24
34672 H 151.85252261621724 13.04682275935528 84.77295296882795 H 0.0 **** 0.06
34673 H 150.2135678212467 13.595293890679386 84.3469272589362 H 0.0 **** 0.06
34674 H 150.9807963707729 14.164636414396824 85.8490483483647 H 0.0 **** 0.06
34675 H 150.45111037666956 12.47129633199225 85.7069237118414 H 0.0 **** 0.06
34676 C 84.69234046071203 131.6985506306774 103.20538633218685 C 0.0 **** -0.24
34677 H 84.95606371383782 131.17465550763347 104.12385641700676 H 0.0 **** 0.06
34678 H 85.32690789081495 131.3471972728952 102.3911471887095 H 0.0 **** 0.06
34679 H 84.83789068673647 132.7697317570022 103.34354739636102 H 0.0 **** 0.06
34680 H 83.64783387671748 131.50190180937403 102.9627845790332 H 0.0 **** 0.06
34681 C 169.70489076777943 10.697169806612521 184.47392568516412 C 0.0 **** -0.24
34682 H 170.6544325811558 10.582519003000954 183.9495508748722 H 0.0 **** 0.06
34683 H 169.83470186109116 10.426872820512216 185.52207214104178 H 0.0 **** 0.06
34684 H 168.95863950562278 10.045066422329256 184.0197356357615 H 0.0 **** 0.06
34685 H 169.3741718428467 11.733146574264708 184.4025640481181 H 0.0 **** 0.06
34686 C 24.95751783143176 116.46529064150378 169.43643026999698 C 0.0 **** -0.24
34687 H 24.242278021215157 116.91336115076821 168.74585860567183 H 0.0 **** 0.06
34688 H 24.42065164048141 115.9206044802872 170.2130550447994 H 0.0 **** 0.06
34689 H 25.560000752176748 117.25051742979313 169.8942769815532 H 0.0 **** 0.06
34690 H 25.606614449089065 115.77956773057564 168.89191302316635 H 0.0 **** 0.06
34691 C 52.99098307541453 181.61027759631025 92.81485630854053 C 0.0 **** -0.24
34692 H 53.41929593128913 181.56844478293254 91.81336318394006 H 0.0 **** 0.06
34693 H 51.93505600552312 181.34444202401298 92.76990273082663 H 0.0 **** 0.06
34694 H 53.09396230240746 182.6202783227709 93.21135620770701 H 0.0 **** 0.06
34695 H 53.51550059339331 180.9103835204401 93.4646001005654 H 0.0 **** 0.06
34696 C 160.09268142513525 136.11787222769323 123.634435509785 C 0.0 **** -0.24
34697 H 159.33652190144156 136.34492424951628 122.88182634290372 H 0.0 **** 0.06
34698 H 161.04943339637273 135.93514418991668 123.14455030995374 H 0.0 **** 0.06
34699 H 159.79435436771442 135.22995662135276 124.19155147426382 H 0.0 **** 0.06
34700 H 160.18899232288192 136.9611141893742 124.3171964698207 H 0.0 **** 0.06
34701 C 16.504845718779166 169.46745795786467 110.78769609082076 C 0.0 **** -0.24
34702 H 16.11797286569552 170.3618491839529 111.27627883594789 H 0.0 **** 0.06
34703 H 17.574001774719477 169.37958852536875 110.98678077666898 H 0.0 **** 0.06
34704 H 16.33882445815675 169.5395596475102 109.71335600380252 H 0.0 **** 0.06
34705 H 15.989757584705558 168.58948604053015 111.17786130785584 H 0.0 **** 0.06
34706 C 39.11193074742755 68.83831146465747 145.34781532544923 C 0.0 **** -0.24
34707 H 40.079221673414 69.18444652837309 145.71300727948739 H 0.0 **** 0.06
34708 H 39.16861201337349 67.77253132228576 145.1234889603682 H 0.0 **** 0.06
34709 H 38.84777285764841 69.38669327904114 144.44460698110524 H 0.0 **** 0.06
34710 H 38.35300981444476 69.00855233634051 146.1112335709864 H 0.0 **** 0.06
34711 C 44.59151319338298 129.48801253186764 30.61279699505411 C 0.0 **** -0.24
34712 H 43.55505099920407 129.75571170273633 30.408474636123913 H 0.0 **** 0.06
34713 H 44.72305421838877 129.33520424954668 31.684230597150417 H 0.0 **** 0.06
34714 H 45.24669412883662 130.29088105241846 30.276484022244006 H 0.0 **** 0.06
34715 H 44.840411187785776 128.56922150694265 30.081522855860698 H 0.0 **** 0.06
34716 C 153.409644955253 152.61725914311407 116.993935648792 C 0.0 **** -0.24
34717 H 153.53150678634876 151.94769281195659 117.84476874665661 H 0.0 **** 0.06
34718 H 154.20138123414958 153.3664450533377 117.00463626755898 H 0.0 **** 0.06
34719 H 152.43994527973763 153.11135741344847 117.05702930868976 H 0.0 **** 0.06
34720 H 153.46428610839388 152.04266096105601 116.069004489065 H 0.0 **** 0.06
34721 C 173.9750944747493 40.36323138589117 29.631788658529132 C 0.0 **** -0.24
34722 H 174.21664853493218 39.80051905377992 28.73008758309328 H 0.0 **** 0.06
34723 H 173.14268526674428 41.03733193295274 29.42669658732376 H 0.0 **** 0.06
34724 H 174.8452029548936 40.94333158850222 29.94101249116858 H 0.0 **** 0.06
34725 H 173.69638283857384 39.67345150898892 30.428020969286536 H 0.0 **** 0.06
34726 C 168.0523020216839 91.79422491224538 50.353309034096156 C 0.0 **** -0.24
34727 H 168.17843220952312 90.71926728570484 50.478575215342175 H 0.0 **** 0.06
34728 H 168.83477159989695 92.17784559660102 49.698871960519085 H 0.0 **** 0.06
34729 H 168.1178324961072 92.28316361737065 51.3253450753142 H 0.0 **** 0.06
34730 H 167.07627506934443 91.99552909553007 49.9099903942855 H 0.0 **** 0.06
34731 C 39.73873214111231 53.428255960099406 23.700448867198105 C 0.0 **** -0.24
34732 H 39.13752750593332 52.87154672363309 22.981869597625646 H 0.0 **** 0.06
34733 H 39.46897786656805 54.48413026936905 23.659540830087323 H 0.0 **** 0.06
34734 H 40.79534823546446 53.31320007845508 23.456818082104547 H 0.0 **** 0.06
34735 H 39.55393220704276 53.04418772042972 24.704080251453647 H 0.0 **** 0.06
34736 C 69.49784370806141 65.54682788957115 133.86742950590065 C 0.0 **** -0.24
34737 H 70.47461090092962 65.11768998895235 133.64391244018174 H 0.0 **** 0.06
34738 H 68.72406568219463 64.97072476032866 133.3613405008315 H 0.0 **** 0.06
34739 H 69.46789276854743 66.58010830100517 133.52123172484391 H 0.0 **** 0.06
34740 H 69.32749200717751 65.519376334539 134.94389459332075 H 0.0 **** 0.06
34741 C 88.83498219377344 129.41630195516512 163.8157893528109 C 0.0 **** -0.24
34742 H 88.74520843467405 130.3821137099352 163.31971409532912 H 0.0 **** 0.06
34743 H 87.85382487961868 128.94463889990976 163.87361373983703 H 0.0 **** 0.06
34744 H 89.22864597048891 129.56058327240987 164.82229325931914 H 0.0 **** 0.06
34745 H 89.51214715702537 128.77848648757669 163.24915246383085 H 0.0 **** 0.06
34746 C 95.45710201053168 115.70535024723698 164.01095485583318 C 0.0 **** -0.24
34747 H 96.18301821353964 114.90148581866204 164.13507584995716 H 0.0 **** 0.06
34748 H 95.83501845009192 116.42709755629132 163.28576357908358 H 0.0 **** 0.06
34749 H 95.29687708101284 116.20103872907102 164.96861255756323 H 0.0 **** 0.06
34750 H 94.51431792745035 115.29073147717973 163.65389349567326 H 0.0 **** 0.06
34751 C 87.70512865588618 158.40473715659016 5.268242048015168 C 0.0 **** -0.24
34752 H 87.65867562688025 159.48191789884007 5.428504736393336 H 0.0 **** 0.06
34753 H 87.36291741600105 158.17281790103237 4.260006325121594 H 0.0 **** 0.06
34754 H 87.06693399067554 157.90188074249713 5.994265008169435 H 0.0 **** 0.06
34755 H 88.7336441376765 158.06362596138635 5.390954916329775 H 0.0 **** 0.06
34756 C 169.38126805914715 119.06247192948472 30.20624727861758 C 0.0 **** -0.24
34757 H 168.59474341959373 118.96783921263368 29.45755775434617 H 0.0 **** 0.06
34758 H 170.35401440106787 118.96575365647475 29.72523951890723 H 0.0 **** 0.06
34759 H 169.2654349264747 118.27848661288631 30.95500497403461 H 0.0 **** 0.06
34760 H 169.30788117111084 120.03783496302533 30.687088911976645 H 0.0 **** 0.06
34761 C 92.31456704621719 169.47115121502017 9.579530451461466 C 0.0 **** -0.24
34762 H 91.64795418989921 169.9071743431214 10.324534162729776 H 0.0 **** 0.06
34763 H 92.40209739956539 168.3984413466233 9.755579790661443 H 0.0 **** 0.06
34764 H 93.29776992663211 169.9342721664588 9.657102488132693 H 0.0 **** 0.06
34765 H 91.90831584361932 169.644641244524 8.583445859658354 H 0.0 **** 0.06
34766 C 8.110492885204138 165.66717953489868 78.26270305826489 C 0.0 **** -0.24
34767 H 7.632578511688429 166.20617407998998 79.08071900817902 H 0.0 **** 0.06
34768 H 7.491559665847518 165.7429239618444 77.3678003520181 H 0.0 **** 0.06
34769 H 8.225934538930616 164.61818951472088 78.53678980251698 H 0.0 **** 0.06
34770 H 9.090038923346341 166.10075876519727 78.06520385820772 H 0.0 **** 0.06
34771 C 41.34419619291015 146.37902746021183 94.74877679628258 C 0.0 **** -0.24
34772 H 41.41465448505747 147.41002679208435 95.09516294663672 H 0.0 **** 0.06
34773 H 40.66402147177095 146.32720650902345 93.89814096304195 H 0.0 **** 0.06
34774 H 40.96695777832008 145.7507933824839 95.55593012421093 H 0.0 **** 0.06
34775 H 42.33192287969065 146.02945795705705 94.44745880793698 H 0.0 **** 0.06
34776 C 177.21394205961465 160.11321600530817 128.63502591995962 C 0.0 **** -0.24
34777 H 177.77491987782665 160.82818267266765 128.0323934130148 H 0.0 **** 0.06
34778 H 176.9381630553372 159.25636452759187 128.0196220926905 H 0.0 **** 0.06
34779 H 176.31297985655286 160.58993663675244 129.01972695187402 H 0.0 **** 0.06
34780 H 177.83192444895144 159.7781312690759 129.46848039816223 H 0.0 **** 0.06
34781 C 33.30842262443417 142.7325087717335 109.22470161384551 C 0.0 **** -0.24
34782 H 33.36994031027797 143.34217337312145 110.12673489316636 H 0.0 **** 0.06
34783 H 32.308607523104456 142.30419633704844 109.14345123691452 H 0.0 **** 0.06
34784 H 34.044315074934275 141.92992682177902 109.27832893179873 H 0.0 **** 0.06
34785 H 33.51101668546346 143.35315094202812 108.35244059737248 H 0.0 **** 0.06
34786 C 136.235299373925 165.98387203968602 166.5146942463196 C 0.0 **** -0.24
34787 H 136.8993001423591 166.62484433706126 165.93442545907848 H 0.0 **** 0.06
34788 H 135.20045757387288 166.27152238606786 166.32976430330984 H 0.0 **** 0.06
34789 H 136.4595961056587 166.095104344706 167.57550229259334 H 0.0 **** 0.06
34790 H 136.38365613573757 164.94547162606534 166.21831068387118 H 0.0 **** 0.06
34791 C 16.38088531209766 51.730020395619405 64.73216403861227 C 0.0 **** -0.24
34792 H 16.52526561488412 51.95317144923072 65.78892147566924 H 0.0 **** 0.06
34793 H 16.816690768375338 50.75660623588483 64.50426302234331 H 0.0 **** 0.06
34794 H 16.86952166195735 52.49606810058103 64.12943954636552 H 0.0 **** 0.06
34795 H 15.314991339853094 51.71374070104669 64.5064576899548 H 0.0 **** 0.06
34796 C 143.27101282545812 68.71158230739906 103.80402220800447 C 0.0 **** -0.24
34797 H 142.68061046178923 67.85542746431037 104.12946695252232 H 0.0 **** 0.06
34798 H 142.8800492574193 69.61855278579583 104.26636670120983 H 0.0 **** 0.06
34799 H 143.21200674004558 68.80147848904744 102.71902988629269 H 0.0 **** 0.06
34800 H 144.30998361079094 68.57071415014914 104.10133554905688 H 0.0 **** 0.06
34801 C 129.37501594651127 172.83754288949183 33.78182069852315 C 0.0 **** -0.24
34802 H 130.0439077743448 173.67450585534505 33.98499576315754 H 0.0 **** 0.06
34803 H 129.34568316676894 172.17854504664794 34.649961131741975 H 0.0 **** 0.06
34804 H 129.7387403957594 172.2836062172017 32.91702648927293 H 0.0 **** 0.06
34805 H 128.37285179055834 173.2139180190906 33.578053392531444 H 0.0 **** 0.06
34806 C 118.16305527309338 107.2385652132407 101.21275930833231 C 0.0 **** -0.24
34807 H 119.12259353801771 107.04484488752256 100.73499568773995 H 0.0 **** 0.06
34808 H 118.06371986904757 108.30647469004755 101.40904024964699 H 0.0 **** 0.06
34809 H 118.1083931590724 106.69002574490692 102.15303313314631 H 0.0 **** 0.06
34810 H 117.35671177024385 106.9131344770989 100.5551117075603 H 0.0 **** 0.06
34811 C 130.06126563119966 94.94670998163843 18.85656294057094 C 0.0 **** -0.24
34812 H 129.26536489920363 94.21122590119683 18.737573165372964 H 0.0 **** 0.06
34813 H 130.85893928222845 94.52236988538561 19.467624830217602 H 0.0 **** 0.06
34814 H 129.66269785772442 95.8367247290252 19.345096338401135 H 0.0 **** 0.06
34815 H 130.45674669991797 95.21625953411944 17.877442867609176 H 0.0 **** 0.06
34816 C 137.29966956819015 131.59858950205995 125.04932164908023 C 0.0 **** -0.24
34817 H 137.9403008034592 131.29315532862972 125.8757669981057 H 0.0 **** 0.06
34818 H 136.2976767920851 131.8057442315905 125.42414526149462 H 0.0 **** 0.06
34819 H 137.25381819089392 130.7980432458046 124.31059387737933 H 0.0 **** 0.06
34820 H 137.70806133875914 132.49759463507252 124.58602009086984 H 0.0 **** 0.06
34821 C 94.48913853558928 17.11708746817348 110.1151237294953 C 0.0 **** -0.24
34822 H 95.09864289683027 17.78215075901889 109.50392523646165 H 0.0 **** 0.06
34823 H 94.22962829663619 17.617701094330783 111.04820668872001 H 0.0 **** 0.06
34824 H 95.04890628710716 16.20835625926759 110.33299061632967 H 0.0 **** 0.06
34825 H 93.57739497422735 16.861088133557814 109.57495116958559 H 0.0 **** 0.06
34826 C 15.462397353452616 32.67887542730011 117.35383337184187 C 0.0 **** -0.24
34827 H 16.50557413852175 32.418423227732205 117.53822767302019 H 0.0 **** 0.06
34828 H 15.038879415788472 31.986047036918308 116.62683492870796 H 0.0 **** 0.06
34829 H 15.406181378330103 33.69522548011497 116.96381067884978 H 0.0 **** 0.06
34830 H 14.902521448211814 32.61633023722254 118.28650716914531 H 0.0 **** 0.06
34831 C 182.66063443802352 66.5028322455612 119.15369094104108 C 0.0 **** -0.24
34832 H 182.72057031322294 65.95148626424526 118.21508683168372 H 0.0 **** 0.06
34833 H 181.67518121581358 66.35751062050184 119.59771230000206 H 0.0 **** 0.06
34834 H 182.8206229951948 67.5633895227632 118.96305450060584 H 0.0 **** 0.06
34835 H 183.42580528650657 66.13725362393797 119.83904940619658 H 0.0 **** 0.06
34836 C 56.442722625477586 7.598179879777632 13.79287131998769 C 0.0 **** -0.24
34837 H 57.336485775557264 7.117372133584553 14.189027447007113 H 0.0 **** 0.06
34838 H 56.63496483960728 7.940682007082984 12.7757972803985 H 0.0 **** 0.06
34839 H 56.1810652076112 8.450731318165793 14.420016292530327 H 0.0 **** 0.06
34840 H 55.618006624277314 6.885547796299562 13.786133901496655 H 0.0 **** 0.06
34841 C 155.4341094215057 179.72502437332108 168.9629882170213 C 0.0 **** -0.24
34842 H 156.09277791434477 179.5836362536409 168.10666727536773 H 0.0 **** 0.06
34843 H 155.26765582669475 178.76551321599604 169.45526452894578 H 0.0 **** 0.06
34844 H 154.479985420415 180.1292205327842 168.6245798512385 H 0.0 **** 0.06
34845 H 155.89560862645612 180.4187791577394 169.66581476007238 H 0.0 **** 0.06
34846 C 166.7894480094786 94.54092578842945 149.20827312582796 C 0.0 **** -0.24
34847 H 166.53456120092844 93.54096476748892 149.5574793733636 H 0.0 **** 0.06
34848 H 167.42677146987273 95.03147032086359 149.94516136307678 H 0.0 **** 0.06
34849 H 165.8764151090161 95.12188589283419 149.07323729899196 H 0.0 **** 0.06
34850 H 167.31969828860642 94.47048488448469 148.25912874451416 H 0.0 **** 0.06
34851 C 159.9260559166106 125.68933340440167 90.7844877601486 C 0.0 **** -0.24
34852 H 160.6850029624227 126.46427256904322 90.88955451435505 H 0.0 **** 0.06
34853 H 159.1346361080802 126.04289346117046 90.12246481963247 H 0.0 **** 0.06
34854 H 159.50554386811632 125.45758439112304 91.76228494701384 H 0.0 **** 0.06
34855 H 160.37938336273842 124.79167706213151 90.36221093356495 H 0.0 **** 0.06
34856 C 62.36743827922669 48.4573847913602 13.253585342338113 C 0.0 **** -0.24
34857 H 61.746034168674214 49.32231526558036 13.484079488502083 H 0.0 **** 0.06
34858 H 61.96054499824061 47.57580134989976 13.74949145340954 H 0.0 **** 0.06
34859 H 63.38273583982442 48.63622920634086 13.606459091607505 H 0.0 **** 0.06
34860 H 62.38033521025943 48.29503779066394 12.17653963977618 H 0.0 **** 0.06
34861 C 42.10496292422869 174.34579918203517 139.07732273753584 C 0.0 **** -0.24
34862 H 41.941771599406536 173.57982521886004 138.32014190901532 H 0.0 **** 0.06
34863 H 42.201782556252624 175.31894920920973 138.59401290607775 H 0.0 **** 0.06
34864 H 43.017051777161555 174.12222269811775 139.62971464271345 H 0.0 **** 0.06
34865 H 41.25909198642643 174.36330331784688 139.7645507380173 H 0.0 **** 0.06
34866 C 138.64601062305172 8.898571418091556 149.5222333711955 C 0.0 **** -0.24
34867 H 139.04694219178157 8.015916586619284 150.0203485034686 H 0.0 **** 0.06
34868 H 137.55826011295062 8.894382675518756 149.5935050365651 H 0.0 **** 0.06
34869 H 138.9414316772474 8.889269345318944 148.47265285637775 H 0.0 **** 0.06
34870 H 139.03843997063433 9.795437375276357 150.00178110707532 H 0.0 **** 0.06
34871 C 47.801669234617464 53.95326151117149 160.0608210683888 C 0.0 **** -0.24
34872 H 47.52419237082995 53.159281756255865 160.75347544032957 H 0.0 **** 0.06
34873 H 48.513927935734955 53.56653887857577 159.33223922578895 H 0.0 **** 0.06
34874 H 48.25682749777707 54.775453605380704 160.61368406843616 H 0.0 **** 0.06
34875 H 46.91133740197756 54.31301060600566 159.54444407827066 H 0.0 **** 0.06
34876 C 2.6242482133835097 38.82591873231132 171.11126882440232 C 0.0 **** -0.24
34877 H 2.5543702256561005 37.77717896638052 170.8212923576673 H 0.0 **** 0.06
34878 H 2.756616530753547 39.44059830025611 170.21999386088078 H 0.0 **** 0.06
34879 H 3.4745506645065802 38.963268972173296 171.7775495158394 H 0.0 **** 0.06
34880 H 1.7087164706186684 39.1220277099427 171.62376221471484 H 0.0 **** 0.06
34881 C 103.26805377963244 48.89482039509653 54.401904887013416 C 0.0 **** -0.24
34882 H 102.59868874266 49.304374125808295 53.64640735951309 H 0.0 **** 0.06
34883 H 104.26361828839195 49.319676422532325 54.27485363576534 H 0.0 **** 0.06
34884 H 103.3185896127964 47.81074239129231 54.29335346809535 H 0.0 **** 0.06
34885 H 102.89012181331528 49.143321113249016 55.394490010495105 H 0.0 **** 0.06
34886 C 131.0367206812328 159.53227684120498 67.47367066903622 C 0.0 **** -0.24
34887 H 131.2697039069887 159.61736512146155 68.53482482896597 H 0.0 **** 0.06
34888 H 131.84240718954032 159.97716767625184 66.88832479038804 H 0.0 **** 0.06
34889 H 130.10342142410303 160.05521937179947 67.26331386268748 H 0.0 **** 0.06
34890 H 130.93122549913699 158.48088337582652 67.20741347264571 H 0.0 **** 0.06
34891 C 83.26810960407602 37.621349723119565 148.13931125830163 C 0.0 **** -0.24
34892 H 82.24473368876238 37.710346641661204 148.50196896742852 H 0.0 **** 0.06
34893 H 83.4481247457125 38.37555521688223 147.37285969463318 H 0.0 **** 0.06
34894 H 83.41835263539895 36.628863306825096 147.71547510256414 H 0.0 **** 0.06
34895 H 83.96092232606418 37.771566784845206 148.96675050549845 H 0.0 **** 0.06
34896 C 64.10543724782679 16.81789646015384 49.250899924957025 C 0.0 **** -0.24
34897 H 64.41073965508605 17.16798969223818 48.265400303156866 H 0.0 **** 0.06
34898 H 63.60903674508367 15.851899382143714 49.15705667264092 H 0.0 **** 0.06
34899 H 63.41776153750297 17.537850572871122 49.694903937202184 H 0.0 **** 0.06
34900 H 64.98386991229508 16.714949376349068 49.88815365848433 H 0.0 **** 0.06
34901 C 15.021748682226892 40.93964693710819 70.82203997716567 C 0.0 **** -0.24
34902 H 14.781224874190258 41.458774193878014 71.74991203566691 H 0.0 **** 0.06
34903 H 14.108522069797942 40.53838421033038 70.38256330830683 H 0.0 **** 0.06
34904 H 15.713424940733546 40.12365891680315 71.03189914920154 H 0.0 **** 0.06
34905 H 15.484751702676249 41.63854437365845 70.12591576227067 H 0.0 **** 0.06
34906 C 39.30826867997729 117.44637104492479 46.814302150913704 C 0.0 **** -0.24
34907 H 38.80835754656866 117.2699902723998 45.86172351739327 H 0.0 **** 0.06
34908 H 39.67415229602071 118.47283888872265 46.84729185497727 H 0.0 **** 0.06
34909 H 40.14676937998138 116.75796695293975 46.91800719642356 H 0.0 **** 0.06
34910 H 38.60205506103347 117.28511294195552 47.62929695643743 H 0.0 **** 0.06
34911 C 149.84984083508905 160.09270011998274 52.966699516380345 C 0.0 **** -0.24
34912 H 150.66191754052517 159.56978486181157 52.46104209010424 H 0.0 **** 0.06
34913 H 149.20161753503223 160.55992741589768 52.22649378257691 H 0.0 **** 0.06
34914 H 150.26445084367504 160.85902658116458 53.621969437580134 H 0.0 **** 0.06
34915 H 149.27456552523262 159.38107288356562 53.55898353507288 H 0.0 **** 0.06
34916 C 59.84577955275557 147.3567637003398 134.83874069834332 C 0.0 **** -0.24
34917 H 59.345276016146386 147.99575884697813 134.11122934078804 H 0.0 **** 0.06
34918 H 59.26593501026673 146.444025927467 134.9798203042576 H 0.0 **** 0.06
34919 H 59.9303334893811 147.8840440777586 135.78923289249855 H 0.0 **** 0.06
34920 H 60.841240262154884 147.10228980817294 134.47456850985975 H 0.0 **** 0.06
34921 C 97.98568503943069 47.57640462539973 40.902664962439246 C 0.0 **** -0.24
34922 H 97.92156593019634 47.68227718786986 39.82003386807969 H 0.0 **** 0.06
34923 H 97.02107027005125 47.81911226776769 41.349719476492 H 0.0 **** 0.06
34924 H 98.74700497685053 48.253529165212 41.290316456112464 H 0.0 **** 0.06
34925 H 98.25258032507314 46.548972463229816 41.152247509003644 H 0.0 **** 0.06
34926 C 140.7801620303378 134.42319122475908 160.7050001838368 C 0.0 **** -0.24
34927 H 141.1680647001043 135.12990291972824 161.43881383141982 H 0.0 **** 0.06
34928 H 140.94290903691837 134.8182384484483 159.7011578061834 H 0.0 **** 0.06
34929 H 139.7132126385361 134.27713728528488 160.87000496129593 H 0.0 **** 0.06
34930 H 141.29840745549967 133.47067707278921 160.80984197873124 H 0.0 **** 0.06
34931 C 46.51577048392116 90.78258077999124 118.16166030917732 C 0.0 **** -0.24
34932 H 46.54437982622659 89.74331886520656 118.48867641634236 H 0.0 **** 0.06
34933 H 45.4814622737172 91.08097896162019 117.98875735877967 H 0.0 **** 0.06
34934 H 47.08405918111487 90.8886115059421 117.23756680414677 H 0.0 **** 0.06
34935 H 46.95423779659558 91.41729842804966 118.9325729624086 H 0.0 **** 0.06
34936 C 91.11737640557253 69.11803305778136 52.803883520567126 C 0.0 **** -0.24
34937 H 90.4683024516023 69.94417499061086 52.514664129208825 H 0.0 **** 0.06
34938 H 92.15086873734576 69.36577616811172 52.559483557058854 H 0.0 **** 0.06
34939 H 90.82159959503967 68.21740860978457 52.26491963525572 H 0.0 **** 0.06
34940 H 91.02901067911732 68.94560910035514 53.87599350198218 H 0.0 **** 0.06
34941 C 83.57931889987131 18.57300831856361 155.97415678755607 C 0.0 **** -0.24
34942 H 84.64107050378341 18.333641233542295 155.9141126679821 H 0.0 **** 0.06
34943 H 83.25170470535657 19.008444039390838 155.02949967213516 H 0.0 **** 0.06
34944 H 83.41306016506242 19.28697337978099 156.78098966631111 H 0.0 **** 0.06
34945 H 83.01341113408573 17.66371358165597 156.17127043854694 H 0.0 **** 0.06
34946 C 147.1670356353846 83.4265118094349 64.68130900150443 C 0.0 **** -0.24
34947 H 146.5192861203634 83.47419185936744 65.55631844535718 H 0.0 **** 0.06
34948 H 148.10660273203052 82.94242703244365 64.95016955112618 H 0.0 **** 0.06
34949 H 147.36712315599658 84.43505371194671 64.32191571410736 H 0.0 **** 0.06
34950 H 146.6748512002077 82.85196521358657 63.89649051368673 H 0.0 **** 0.06
34951 C 72.59980365288285 130.8694342640277 124.59041752171407 C 0.0 **** -0.24
34952 H 72.8468936844078 130.17372483971565 125.39181957867459 H 0.0 **** 0.06
34953 H 72.80923465721186 130.40373803774548 123.62765689148773 H 0.0 **** 0.06
34954 H 73.20128599160711 131.77289861940335 124.69576239964834 H 0.0 **** 0.06
34955 H 71.54245391469739 131.12792328740926 124.64695349861785 H 0.0 **** 0.06
34956 C 112.02084436106986 9.99362771593303 15.944009014396443 C 0.0 **** -0.24
34957 H 112.43501882789303 9.96682538727913 16.951359739094812 H 0.0 **** 0.06
34958 H 111.06883768467799 9.461721204700353 15.929004070055612 H 0.0 **** 0.06
34959 H 112.7148114759766 9.515605324357892 15.253148983680717 H 0.0 **** 0.06
34960 H 111.86349256856215 11.02914578314278 15.642305337566938 H 0.0 **** 0.06
34961 C 127.67363576585755 42.39487879312043 74.6090516781542 C 0.0 **** -0.24
34962 H 128.66540210610577 41.95004165974029 74.52492186407562 H 0.0 **** 0.06
34963 H 126.95778868629476 41.62981664860524 74.91305544157741 H 0.0 **** 0.06
34964 H 127.37800514043353 42.807453620108504 73.64395586348648 H 0.0 **** 0.06
34965 H 127.69363012663176 43.189805158163665 75.35386214862716 H 0.0 **** 0.06
34966 C 43.36827031719196 146.73145198864918 68.1649012509227 C 0.0 **** -0.24
34967 H 43.303580227582415 145.98023517940373 68.95269810708194 H 0.0 **** 0.06
34968 H 42.504806004623845 147.39499462442433 68.22404468401135 H 0.0 **** 0.06
34969 H 43.38109204126525 146.2380999047365 67.19271315032285 H 0.0 **** 0.06
34970 H 44.282668503552884 147.3114497743175 68.29041177988714 H 0.0 **** 0.06
34971 C 62.84294553547308 103.65110202041404 141.9352771587345 C 0.0 **** -0.24
34972 H 63.672944596678704 103.34304326733525 141.29881211990244 H 0.0 **** 0.06
34973 H 61.93294276514784 103.14169866759102 141.6170530801815 H 0.0 **** 0.06
34974 H 62.70324380289384 104.72863397384151 141.8533768617832 H 0.0 **** 0.06
34975 H 63.063083948787806 103.39089095053112 142.97052767753502 H 0.0 **** 0.06
34976 C 120.52141398125617 68.23186936175765 18.12285374883262 C 0.0 **** -0.24
34977 H 120.90874770575097 67.9154852888749 17.154944641712262 H 0.0 **** 0.06
34978 H 121.07009101492484 67.72489267818321 18.916926498108566 H 0.0 **** 0.06
34979 H 119.46345558595682 67.97656795212772 18.191908907887033 H 0.0 **** 0.06
34980 H 120.64205080202977 69.31008211003495 18.22791749589514 H 0.0 **** 0.06
34981 C 79.84550843289165 26.9531665937499 85.00275438541225 C 0.0 **** -0.24
34982 H 80.40624446565668 27.807981971559684 84.62509564237071 H 0.0 **** 0.06
34983 H 80.47867607486369 26.0663988316077 84.9829295205302 H 0.0 **** 0.06
34984 H 78.96885329616082 26.7887046133157 84.37645622597103 H 0.0 **** 0.06
34985 H 79.52826996331727 27.150993626464924 86.02647044642389 H 0.0 **** 0.06
34986 C 4.15567029042036 1.3200930244809115 121.82292352728508 C 0.0 **** -0.24
34987 H 4.548952974373449 1.0048710915164065 120.8560987015717 H 0.0 **** 0.06
34988 H 4.385487010473746 2.3730633913281167 121.98270156072017 H 0.0 **** 0.06
34989 H 4.612364976723484 0.7234293721849667 122.61244541318344 H 0.0 **** 0.06
34990 H 3.074747473389124 1.176476678245706 121.83862705279218 H 0.0 **** 0.06
34991 C 122.99784903918682 69.81328279430446 37.9100239033893 C 0.0 **** -0.24
34992 H 123.24801320105287 69.79022477061405 36.84923241112597 H 0.0 **** 0.06
34993 H 123.82237646027836 69.39216694463542 38.486244662941004 H 0.0 **** 0.06
34994 H 122.09548701886969 69.22815929846307 38.083873295651344 H 0.0 **** 0.06
34995 H 122.8268573863172 70.84512830061246 38.219434808079924 H 0.0 **** 0.06
34996 C 22.945743202109682 127.41756582628774 126.89790751543019 C 0.0 **** -0.24
34997 H 22.383450754097538 126.83047159303662 127.62380139149955 H 0.0 **** 0.06
34998 H 23.11972491400857 126.81871210653766 126.00337077837615 H 0.0 **** 0.06
34999 H 23.901146029314646 127.71315303843006 127.33030892288228 H 0.0 **** 0.06
35000 H 22.376244594811624 128.30844806796728 126.63243521895821 H 0.0 **** 0.06
35001 C 182.61547261310213 77.31724210253618 95.98312460215078 C 0.0 **** -0.24
35002 H 182.93723447409727 78.35761705547885 95.99735752772062 H 0.0 **** 0.06
35003 H 182.4908994111217 76.96172810027937 97.0058937214497 H 0.0 **** 0.06
35004 H 183.36790167355932 76.71160699657955 95.47675317561652 H 0.0 **** 0.06
35005 H 181.66641537972575 77.23653961928889 95.4517830209694 H 0.0 **** 0.06
35006 C 174.2899228200924 164.42539467538867 76.85342461249556 C 0.0 **** -0.24
35007 H 174.91265842370086 163.5424264898034 76.71264502079185 H 0.0 **** 0.06
35008 H 173.3903468102851 164.33632357189686 76.24457019746913 H 0.0 **** 0.06
35009 H 174.84590975178332 165.31349560562788 76.55396907607324 H 0.0 **** 0.06
35010 H 174.01085232374015 164.50842128650405 77.9042926478521 H 0.0 **** 0.06
35011 C 127.61152633060959 114.67595842524405 46.57042891765593 C 0.0 **** -0.24
35012 H 127.44608464272062 113.93337726865052 45.78980568030579 H 0.0 **** 0.06
35013 H 126.65668334426869 114.94261848637906 47.02457610820278 H 0.0 **** 0.06
35014 H 128.06861295737212 115.56410983934369 46.13539073859948 H 0.0 **** 0.06
35015 H 128.2732798095273 114.26154003218973 47.33088212994909 H 0.0 **** 0.06
35016 C 4.262331421345891 41.69953449687864 18.541245054461484 C 0.0 **** -0.24
35017 H 4.779574106192001 42.54561051631697 18.088372283335325 H 0.0 **** 0.06
35018 H 3.221408759884241 41.96729601374517 18.725457356092846 H 0.0 **** 0.06
35019 H 4.744543476363077 41.44293009855997 19.48437657990243 H 0.0 **** 0.06
35020 H 4.304917030502253 40.84505552263582 17.867180912550154 H 0.0 **** 0.06
35021 C 39.130530633355605 128.37635178479343 77.88192979712585 C 0.0 **** -0.24
35022 H 39.86629599277059 127.81128179209195 77.30936485589314 H 0.0 **** 0.06
35023 H 38.28900406434691 127.72909712305041 78.13036251956419 H 0.0 **** 0.06
35024 H 38.77898218438841 129.2196183397337 77.28852981684571 H 0.0 **** 0.06
35025 H 39.59008119424469 128.74446032122967 78.79918480488527 H 0.0 **** 0.06
35026 C 5.481273834188556 119.84176888456678 146.7476326406186 C 0.0 **** -0.24
35027 H 6.116173454519952 120.44640589871217 147.39622646380514 H 0.0 **** 0.06
35028 H 5.276504095429516 118.88570218119496 147.2287284313236 H 0.0 **** 0.06
35029 H 5.990716236705396 119.67015616151407 145.79863321405787 H 0.0 **** 0.06
35030 H 4.543284310605145 120.36715045977529 146.5667895360209 H 0.0 **** 0.06
35031 C 74.1223072088805 150.26954525567913 54.40043728655404 C 0.0 **** -0.24
35032 H 73.51100209964329 149.3674780813884 54.3900341376965 H 0.0 **** 0.06
35033 H 74.31587256727198 150.58943926437405 53.37694101409981 H 0.0 **** 0.06
35034 H 75.06704774445171 150.06204025149805 54.90273834359161 H 0.0 **** 0.06
35035 H 73.59248228965538 151.06038508822155 54.93419786033604 H 0.0 **** 0.06
35036 C 128.74527254292065 5.206693329000686 28.38882660952366 C 0.0 **** -0.24
35037 H 127.7328820104272 5.326816879116748 28.00324250183985 H 0.0 **** 0.06
35038 H 129.455347863037 5.239784490939151 27.562950492920194 H 0.0 **** 0.06
35039 H 128.82714086296926 4.24832272544073 28.902217049200218 H 0.0 **** 0.06
35040 H 128.9643269217268 6.012901653474749 29.089122037559733 H 0.0 **** 0.06
35041 C 86.65710702831946 116.44164048408095 49.87421073100535 C 0.0 **** -0.24
35042 H 87.59612622879384 116.8714708812588 49.52700602434237 H 0.0 **** 0.06
35043 H 85.93209629112683 117.23852183686068 50.040324871084295 H 0.0 **** 0.06
35044 H 86.82696990780259 115.9051428676238 50.807753057290654 H 0.0 **** 0.06
35045 H 86.27376800883145 115.75116199037416 49.12256319162532 H 0.0 **** 0.06
35046 C 139.90336200512968 0.1431226809065862 20.598911639136674 C 0.0 **** -0.24
35047 H 139.6356888896185 0.9394829672399752 19.903826189308518 H 0.0 **** 0.06
35048 H 140.96825026714112 0.2005999297363772 20.823917670121574 H 0.0 **** 0.06
35049 H 139.67747477869483 -0.8230506436397107 20.146545131728317 H 0.0 **** 0.06
35050 H 139.33014369224992 0.256049749161285 21.51910433953654 H 0.0 **** 0.06
35051 C 7.85839749350864 28.507079157321 111.59831033914723 C 0.0 **** -0.24
35052 H 6.881684655477713 28.299264086529675 111.16019697913147 H 0.0 **** 0.06
35053 H 8.22249478810523 27.617583056243816 112.11222979203252 H 0.0 **** 0.06
35054 H 7.769663341381765 29.327727699575576 112.31022296365369 H 0.0 **** 0.06
35055 H 8.558417405864262 28.783780292985185 110.81011178498657 H 0.0 **** 0.06
35056 C 18.549890452130285 172.09850645933554 75.63507928539117 C 0.0 **** -0.24
35057 H 17.51620997735131 172.44323117402732 75.62094081889556 H 0.0 **** 0.06
35058 H 18.61388558219835 171.12116775206985 75.15663070901574 H 0.0 **** 0.06
35059 H 18.893904817121495 172.0227107040934 76.66653431622356 H 0.0 **** 0.06
35060 H 19.17637880625432 172.8095253909407 75.09497667948378 H 0.0 **** 0.06
35061 C 12.883771786061594 154.6595351738634 142.20805287698198 C 0.0 **** -0.24
35062 H 13.471263516271556 155.52166188466134 142.52557199845006 H 0.0 **** 0.06
35063 H 13.399590662472598 153.7429241370001 142.49366003725578 H 0.0 **** 0.06
35064 H 12.759224932398944 154.6847783845925 141.12556259035927 H 0.0 **** 0.06
35065 H 11.905402085635927 154.69043713551042 142.68712296643457 H 0.0 **** 0.06
35066 C 58.91711951739637 182.0463764568943 124.50637235902634 C 0.0 **** -0.24
35067 H 59.67831075299546 182.5306961458311 125.11838356455043 H 0.0 **** 0.06
35068 H 59.043649353050824 182.34584310872884 123.46568590116176 H 0.0 **** 0.06
35069 H 57.928287638608026 182.3472662860148 124.85269041130478 H 0.0 **** 0.06
35070 H 59.01703428511131 180.9650365306048 124.58939234764425 H 0.0 **** 0.06
35071 C 92.17625963780148 102.64672249554839 2.9095708011233796 C 0.0 **** -0.24
35072 H 91.5341016041009 103.5079845914152 2.7231839871840577 H 0.0 **** 0.06
35073 H 91.72794086196433 101.7575806200931 2.466165382258197 H 0.0 **** 0.06
35074 H 92.28449271418322 102.5017454024147 3.9845059664894222 H 0.0 **** 0.06
35075 H 93.15585256270617 102.82073799842844 2.4652222325877915 H 0.0 **** 0.06
35076 C 81.6887859797561 58.31270004239104 72.15472243979707 C 0.0 **** -0.24
35077 H 82.2580795647765 57.404439591572384 72.3526874208655 H 0.0 **** 0.06
35078 H 80.63627902389727 58.059158507272315 72.0222037676695 H 0.0 **** 0.06
35079 H 82.06590803527386 58.787530863920054 71.2491436188785 H 0.0 **** 0.06
35080 H 81.79443122215451 58.99781913740658 72.99639475897135 H 0.0 **** 0.06
35081 C 148.005922387013 96.70162667259069 156.48707955002612 C 0.0 **** -0.24
35082 H 148.83424717662848 96.34076456155998 157.0963831938733 H 0.0 **** 0.06
35083 H 148.38193710834125 97.0186596820376 155.51406239844997 H 0.0 **** 0.06
35084 H 147.5295484523573 97.54647848985269 156.98530004834356 H 0.0 **** 0.06
35085 H 147.27825110913895 95.90148666042177 156.35220616119366 H 0.0 **** 0.06
35086 C 111.21626408381555 36.49436155248202 24.788814561407648 C 0.0 **** -0.24
35087 H 110.65986892267667 36.95758827409742 23.97318914227955 H 0.0 **** 0.06
35088 H 111.73408060744437 35.60959668589078 24.41828717352621 H 0.0 **** 0.06
35089 H 110.52567385806499 36.20660534423445 25.581402009751045 H 0.0 **** 0.06
35090 H 111.94463261311502 37.20427768355029 25.180386686159423 H 0.0 **** 0.06
35091 C 132.13396647615593 81.17235251471885 18.189943947891983 C 0.0 **** -0.24
35092 H 131.69838882909517 81.78977965723936 18.974652916832902 H 0.0 **** 0.06
35093 H 131.76866024483576 81.50698362331087 17.219014113934904 H 0.0 **** 0.06
35094 H 131.84802979829294 80.13204169095991 18.34733831305472 H 0.0 **** 0.06
35095 H 133.22027885577694 81.25937533190108 18.219249517102 H 0.0 **** 0.06
35096 C 179.79612545588213 174.163514989231 115.54502148049154 C 0.0 **** -0.24
35097 H 178.84429672244596 174.39769858273175 116.02353324812476 H 0.0 **** 0.06
35098 H 179.61137419707518 173.62055907419915 114.61780509591831 H 0.0 **** 0.06
35099 H 180.39579526600266 173.5463958241253 116.21426390564916 H 0.0 **** 0.06
35100 H 180.3297817323105 175.08827894103158 115.32675108998593 H 0.0 **** 0.06
35101 C 170.37021467161043 167.1880943386526 77.42920265423481 C 0.0 **** -0.24
35102 H 170.44302896916665 166.85352215051424 78.46344772315848 H 0.0 **** 0.06
35103 H 171.3323304403216 167.05351158873438 76.93478673891974 H 0.0 **** 0.06
35104 H 170.09380802952077 168.24277621567015 77.40662172314774 H 0.0 **** 0.06
35105 H 169.60998191025575 166.60253730467798 76.91167634026982 H 0.0 **** 0.06
35106 C 153.39546955120227 6.855734084217893 85.77472172347983 C 0.0 **** -0.24
35107 H 152.6030599570728 6.435350677905788 86.39458639336023 H 0.0 **** 0.06
35108 H 153.94750612081197 7.600073183904421 86.34830195826684 H 0.0 **** 0.06
35109 H 152.95630712694975 7.327699142941505 84.89520552810802 H 0.0 **** 0.06
35110 H 154.07200872547725 6.061681628100914 85.46152248697972 H 0.0 **** 0.06
35111 C 22.3412878025579 105.55441510853478 13.925020366814238 C 0.0 **** -0.24
35112 H 21.547398049389244 105.46062980221313 14.665689475199713 H 0.0 **** 0.06
35113 H 22.169621042964195 106.44331341500089 13.318426042413655 H 0.0 **** 0.06
35114 H 22.345069048958408 104.67189158847219 13.284045061745225 H 0.0 **** 0.06
35115 H 23.30214970138337 105.63904189245972 14.431275290424182 H 0.0 **** 0.06
35116 C 126.24088042097573 181.56433763633322 149.53158403626315 C 0.0 **** -0.24
35117 H 127.10526603291491 181.8918548100301 148.9542545211119 H 0.0 **** 0.06
35118 H 125.76257775562756 182.43039069228124 149.99077252339094 H 0.0 **** 0.06
35119 H 126.56399113583525 180.8725785542425 150.30899459809478 H 0.0 **** 0.06
35120 H 125.53206743195203 181.06467941572595 148.87184533549117 H 0.0 **** 0.06
35121 C 89.55307630721246 181.7955055744256 118.8522270740291 C 0.0 **** -0.24
35122 H 90.24958300237189 181.46036404979318 119.6209493594106 H 0.0 **** 0.06
35123 H 88.76501547303748 182.39275447888073 119.31213930450328 H 0.0 **** 0.06
35124 H 89.11184320209428 180.9295672969549 118.35941210622867 H 0.0 **** 0.06
35125 H 90.08572778116586 182.3994320803185 118.11781197424686 H 0.0 **** 0.06
35126 C 147.08523366675684 6.36848918767754 52.70835353956322 C 0.0 **** -0.24
35127 H 147.89369028062535 6.491174940444807 53.42848856279383 H 0.0 **** 0.06
35128 H 146.22891062186835 5.9057904544471285 53.19812804628069 H 0.0 **** 0.06
35129 H 147.42255178246847 5.733478196644967 51.88890439311386 H 0.0 **** 0.06
35130 H 146.79769135590033 7.344266179224235 52.31700581400264 H 0.0 **** 0.06
35131 C 4.244640242260083 43.65466290434745 158.413564741414 C 0.0 **** -0.24
35132 H 4.375872212531036 43.4181863047466 159.46852080730156 H 0.0 **** 0.06
35133 H 3.819702569934144 42.79298230039166 157.89736912950454 H 0.0 **** 0.06
35134 H 5.2100110904945325 43.90301118915977 157.9737788940741 H 0.0 **** 0.06
35135 H 3.570233935065552 44.506268124064775 158.31408061444276 H 0.0 **** 0.06
35136 C 52.32780273279889 138.0480667028541 76.69433443406172 C 0.0 **** -0.24
35137 H 52.29712665141136 138.916297971733 76.03541727260416 H 0.0 **** 0.06
35138 H 52.879148660569115 137.24255449679453 76.20823656090845 H 0.0 **** 0.06
35139 H 51.31199476324042 137.71703960201057 76.90687514555378 H 0.0 **** 0.06
35140 H 52.8252032992869 138.31879977570776 77.6267799787262 H 0.0 **** 0.06
35141 C 10.784338447757563 77.45458339662554 141.09879403664814 C 0.0 **** -0.24
35142 H 11.370347768970817 77.69064607593936 140.21131737970018 H 0.0 **** 0.06
35143 H 9.790165162177942 77.12224647721604 140.7993829101248 H 0.0 **** 0.06
35144 H 10.69771187833129 78.34294994262984 141.72517898557538 H 0.0 **** 0.06
35145 H 11.278022985530072 76.66128956939212 141.65987410031073 H 0.0 **** 0.06
35146 C 108.80301965377593 153.35910140888797 119.19795489390874 C 0.0 **** -0.24
35147 H 107.93114667285356 153.81717743127962 119.66407527038488 H 0.0 **** 0.06
35148 H 108.73454108418831 152.2742233860326 119.28795358816747 H 0.0 **** 0.06
35149 H 109.70754723448287 153.70864763457632 119.69573964263655 H 0.0 **** 0.06
35150 H 108.83809452081688 153.6348115311862 118.1438277414736 H 0.0 **** 0.06
35151 C 182.26707036867379 66.90513378745557 102.70853841718106 C 0.0 **** -0.24
35152 H 181.68323591173274 67.80701245849811 102.5254058285946 H 0.0 **** 0.06
35153 H 181.65666803629045 66.18180124057139 103.25049267483713 H 0.0 **** 0.06
35154 H 183.14608684977227 67.15607230071518 103.3022599451832 H 0.0 **** 0.06
35155 H 182.58032668618333 66.47610605676799 101.75738594833423 H 0.0 **** 0.06
35156 C 178.0158248418283 152.28417258562297 63.110509872896955 C 0.0 **** -0.24
35157 H 177.42952396657293 152.63570409209458 63.958841894796024 H 0.0 **** 0.06
35158 H 177.41190916076346 151.60155045144757 62.51165491108878 H 0.0 **** 0.06
35159 H 178.90259027900868 151.7633708053122 63.471684244352986 H 0.0 **** 0.06
35160 H 178.31682413284597 153.13448745906192 62.49915123136847 H 0.0 **** 0.06
35161 C 22.857445399175845 70.59986556565933 107.4638437248284 C 0.0 **** -0.24
35162 H 23.137075025778017 69.86008734110902 108.21352085417465 H 0.0 **** 0.06
35163 H 22.683982159928163 71.56127242575856 107.94905064937183 H 0.0 **** 0.06
35164 H 21.946723881959983 70.27761362943683 106.95793523693544 H 0.0 **** 0.06
35165 H 23.6620005290372 70.70048886633306 106.73486815883166 H 0.0 **** 0.06
35166 C 81.50414686354539 113.84106238857858 117.65876774315619 C 0.0 **** -0.24
35167 H 82.41279499301234 114.20078045157872 118.14152218891677 H 0.0 **** 0.06
35168 H 80.84975507654973 114.68519515018512 117.44196454792119 H 0.0 **** 0.06
35169 H 80.99163944915524 113.14445485832026 118.32158177522437 H 0.0 **** 0.06
35170 H 81.7631669259312 113.33418745162508 116.72947997495847 H 0.0 **** 0.06
35171 C 83.45159183864388 14.2008713008249 2.9056985753138065 C 0.0 **** -0.24
35172 H 83.39666902036284 14.726444635051536 1.952431291624805 H 0.0 **** 0.06
35173 H 83.3753046780578 13.126795266376035 2.7319938189128834 H 0.0 **** 0.06
35174 H 82.63184149652484 14.523819122432911 3.5459613322193206 H 0.0 **** 0.06
35175 H 84.40161500392077 14.424337260094632 3.3902264822586403 H 0.0 **** 0.06
35176 C 1.1194883642151865 105.50076786359399 48.1052650924878 C 0.0 **** -0.24
35177 H 0.7379843898495437 106.23468914526795 47.39525971377611 H 0.0 **** 0.06
35178 H 2.203161721004875 105.42780321102713 48.00720078806714 H 0.0 **** 0.06
35179 H 0.6691965052103512 104.52917634254923 47.900627524572485 H 0.0 **** 0.06
35180 H 0.865785742060865 105.81118776056486 49.119246280483196 H 0.0 **** 0.06
35181 C 112.81617809540376 118.00641345627373 93.78811504610123 C 0.0 **** -0.24
35182 H 111.75238077248326 117.92366428857567 93.56409225941819 H 0.0 **** 0.06
35183 H 112.95915041814305 118.01898433206698 94.868683532747 H 0.0 **** 0.06
35184 H 113.20666945704704 118.92865038119 93.3583675577123 H 0.0 **** 0.06
35185 H 113.34444719935573 117.15390823496396 93.36007651032513 H 0.0 **** 0.06
35186 C 158.56676724724502 132.81883944058006 177.06273149411305 C 0.0 **** -0.24
35187 H 157.79212846598992 132.59935259032937 177.79891604733157 H 0.0 **** 0.06
35188 H 158.84544327604232 131.90163898443643 176.54374752385672 H 0.0 **** 0.06
35189 H 159.44020213599842 133.23228988173224 177.56710595226855 H 0.0 **** 0.06
35190 H 158.18663660424838 133.54392039018808 176.34274768404978 H 0.0 **** 0.06
35191 C 62.811880509601394 180.45939807393862 149.93155566547324 C 0.0 **** -0.24
35192 H 63.703404374897616 180.06380721812783 149.4458269198684 H 0.0 **** 0.06
35193 H 62.33957312438935 179.67297605310418 150.52073604211049 H 0.0 **** 0.06
35194 H 62.113791343329865 180.81581945875865 149.17392205857283 H 0.0 **** 0.06
35195 H 63.09075319578872 181.28498956576396 150.58573764134113 H 0.0 **** 0.06
35196 C 55.394152984143574 4.85459102556996 16.491390668566474 C 0.0 **** -0.24
35197 H 55.007412831633786 5.845815773079607 16.257467848479223 H 0.0 **** 0.06
35198 H 55.72905181629136 4.831051291330311 17.52912090965369 H 0.0 **** 0.06
35199 H 56.233996210630266 4.627931497529232 15.83352046012672 H 0.0 **** 0.06
35200 H 54.608561480865205 4.113754459778505 16.345060498177595 H 0.0 **** 0.06
35201 C 6.46411523968797 145.2223785741728 74.83460198053763 C 0.0 **** -0.24
35202 H 6.363777109881568 145.16783908811362 73.75087551475286 H 0.0 **** 0.06
35203 H 7.489064883959514 145.48779155102147 75.09153098605879 H 0.0 **** 0.06
35204 H 6.218518619521802 144.2537308609517 75.27101840394295 H 0.0 **** 0.06
35205 H 5.783956776633801 145.97977354981356 75.22424242857335 H 0.0 **** 0.06
35206 C 133.27463546713727 77.98709660029054 159.73610666676555 C 0.0 **** -0.24
35207 H 133.5205556527926 78.93477896148227 160.21484329532416 H 0.0 **** 0.06
35208 H 133.57118208835982 77.16417857362713 160.38698714949334 H 0.0 **** 0.06
35209 H 133.80711697255543 77.91125354237532 158.7877635571504 H 0.0 **** 0.06
35210 H 132.2013481205522 77.93996352287664 159.55462365595372 H 0.0 **** 0.06
35211 C 107.09289179117009 155.6344634461334 134.73767657379022 C 0.0 **** -0.24
35212 H 106.40647445885894 155.28661784660076 135.50941554469938 H 0.0 **** 0.06
35213 H 107.7777356604232 154.8296321830142 134.47159037979424 H 0.0 **** 0.06
35214 H 107.66086010942782 156.48571769848792 135.1136839712123 H 0.0 **** 0.06
35215 H 106.52533359570747 155.93636002472084 133.8566660477615 H 0.0 **** 0.06
35216 C 17.84975125708229 53.038672401892995 24.045646659709533 C 0.0 **** -0.24
35217 H 17.452213371050902 54.05346725494272 24.07938714573443 H 0.0 **** 0.06
35218 H 17.813531641135853 52.66756511980657 23.02154418397099 H 0.0 **** 0.06
35219 H 17.251270924260837 52.39342246805796 24.68784067135867 H 0.0 **** 0.06
35220 H 18.882745178902326 53.04264689083229 24.39508356565672 H 0.0 **** 0.06
35221 C 10.705561784776535 87.43364411411112 93.98633872631437 C 0.0 **** -0.24
35222 H 11.39473207584868 88.04398998692396 94.56936322940196 H 0.0 **** 0.06
35223 H 9.698157927324473 87.84258389740187 94.0713511665242 H 0.0 **** 0.06
35224 H 10.716496669992239 86.41136997824621 94.36297297308614 H 0.0 **** 0.06
35225 H 11.013313243695308 87.43847003087238 92.94047634308227 H 0.0 **** 0.06
35226 C 185.28938897508337 182.7474924619345 39.59199226616752 C 0.0 **** -0.24
35227 H 185.1533280486276 183.69113685348063 39.06265865090583 H 0.0 **** 0.06
35228 H 185.40541491524561 182.9431460320744 40.65807904941016 H 0.0 **** 0.06
35229 H 186.1792826241626 182.24502496270404 39.21491133186947 H 0.0 **** 0.06
35230 H 184.41803010725533 182.11284802178272 39.43091614012633 H 0.0 **** 0.06
35231 C 51.363030622435815 51.66509597550095 56.353586204112446 C 0.0 **** -0.24
35232 H 51.01532925803542 51.04883771829316 57.18274776059582 H 0.0 **** 0.06
35233 H 51.794631111500166 52.58777096899104 56.742866647089386 H 0.0 **** 0.06
35234 H 50.5224832941459 51.90295264227251 55.70096780064148 H 0.0 **** 0.06
35235 H 52.119365055201825 51.120258943664226 55.78852673845057 H 0.0 **** 0.06
35236 C 179.8170212163742 114.0913172574144 116.85893412698681 C 0.0 **** -0.24
35237 H 179.11997250059915 114.84753206620178 117.22243468782995 H 0.0 **** 0.06
35238 H 180.35399839480345 114.47896240126914 115.99228474294017 H 0.0 **** 0.06
35239 H 179.2660304855583 113.1960363472839 116.57512854302882 H 0.0 **** 0.06
35240 H 180.5290924342296 113.84589237602813 117.64763026722801 H 0.0 **** 0.06
35241 C 120.54580445974727 15.505882064964041 185.10137515129276 C 0.0 **** -0.24
35242 H 119.50198219399067 15.487379301175658 185.41582722300313 H 0.0 **** 0.06
35243 H 120.64395680536234 15.008478240169694 184.13651095721553 H 0.0 **** 0.06
35244 H 121.1564977016721 14.988901583844857 185.8417165016354 H 0.0 **** 0.06
35245 H 120.87949240011142 16.540547200268378 185.01348990470075 H 0.0 **** 0.06
35246 C 184.60774440630416 126.01664170916246 21.503139890925922 C 0.0 **** -0.24
35247 H 184.4798926456677 125.44517644422126 22.422335590979685 H 0.0 **** 0.06
35248 H 184.66821121082023 127.07855711400589 21.74115207228391 H 0.0 **** 0.06
35249 H 183.75820573541293 125.83876801558517 20.844265590772125 H 0.0 **** 0.06
35250 H 185.52519591885587 125.70189258280715 21.004836672771518 H 0.0 **** 0.06
35251 C 180.52746770345613 123.36434656489718 183.29744585223722 C 0.0 **** -0.24
35252 H 180.3598803963062 122.37294864517673 183.71902744210993 H 0.0 **** 0.06
35253 H 179.72762048790707 123.60115712766088 182.59599553570445 H 0.0 **** 0.06
35254 H 181.48515777865282 123.37944729392729 182.77554155775064 H 0.0 **** 0.06
35255 H 180.53940570878865 124.10339930909919 184.0992057381722 H 0.0 **** 0.06
35256 C 144.71585541751594 78.01280647082885 7.160129603306899 C 0.0 **** -0.24
35257 H 145.16437873307382 78.7070113165928 6.449563048944327 H 0.0 **** 0.06
35258 H 145.0693152333434 77.00254954500964 6.952491746452438 H 0.0 **** 0.06
35259 H 143.63015001239887 78.04498933769165 7.063753134283161 H 0.0 **** 0.06
35260 H 144.99858492648536 78.29611070006361 8.173876660614042 H 0.0 **** 0.06
35261 C 164.4252636737482 17.175497925998116 88.42559570951313 C 0.0 **** -0.24
35262 H 165.39894137136102 17.664625293996153 88.43822528735554 H 0.0 **** 0.06
35263 H 163.97049181893203 17.296908316206128 87.4414206787079 H 0.0 **** 0.06
35264 H 163.78169181217166 17.627616826969017 89.1811280743391 H 0.0 **** 0.06
35265 H 164.5480286220107 16.114011884673943 88.64148346487023 H 0.0 **** 0.06
35266 C 155.09175333527457 170.0753087602463 63.665027200946895 C 0.0 **** -0.24
35267 H 154.2407750500513 170.0529050622277 64.34632699820185 H 0.0 **** 0.06
35268 H 155.95589590233203 169.6175847282455 64.14845324837336 H 0.0 **** 0.06
35269 H 155.3241215291958 171.10909606553207 63.4087320577442 H 0.0 **** 0.06
35270 H 154.84657831513005 169.52216204564408 62.75874343286279 H 0.0 **** 0.06
35271 C 37.048788926683656 7.408007298680559 185.1684135796334 C 0.0 **** -0.24
35272 H 37.84441758404226 6.919319379905687 184.60587066959616 H 0.0 **** 0.06
35273 H 37.459548217623436 7.833544622002194 186.08444096710133 H 0.0 **** 0.06
35274 H 36.28060340011102 6.676352290795393 185.42112554772555 H 0.0 **** 0.06
35275 H 36.60986720112888 8.201085161337744 184.5637975335633 H 0.0 **** 0.06
35276 C 141.41840627281925 78.70943971755095 168.77100921959232 C 0.0 **** -0.24
35277 H 141.61819682353138 79.7703534896901 168.92204587479563 H 0.0 **** 0.06
35278 H 140.48252353609428 78.44247781211692 169.26274616993848 H 0.0 **** 0.06
35279 H 142.23323525744786 78.1218485791579 169.19553928456554 H 0.0 **** 0.06
35280 H 141.34035018845276 78.50236599835209 167.7038737656593 H 0.0 **** 0.06
35281 C 14.495034644419874 30.952247295574352 45.18179043450044 C 0.0 **** -0.24
35282 H 14.305768286140093 29.934938310580492 45.523238847478865 H 0.0 **** 0.06
35283 H 14.88645777785436 30.92763622473717 44.164153160621055 H 0.0 **** 0.06
35284 H 15.223631212934087 31.42585725439406 45.839944683914894 H 0.0 **** 0.06
35285 H 13.565269810334712 31.52055793524829 45.199976284948775 H 0.0 **** 0.06
35286 C 131.31807512034112 134.32293214166936 90.87225175382945 C 0.0 **** -0.24
35287 H 131.59892211237815 133.91365896465987 89.90135792883395 H 0.0 **** 0.06
35288 H 131.0247956791505 133.51085251309388 91.53802440661788 H 0.0 **** 0.06
35289 H 130.4826006818031 135.01247124599877 90.74816038181477 H 0.0 **** 0.06
35290 H 132.16753406042824 134.85548393462307 91.30124882612289 H 0.0 **** 0.06
35291 C 65.28052265934065 96.51058426451748 126.8456589775875 C 0.0 **** -0.24
35292 H 65.69088273274527 97.51104991746256 126.98259856314962 H 0.0 **** 0.06
35293 H 64.20394534504554 96.53364458906152 127.01593487702968 H 0.0 **** 0.06
35294 H 65.74676865552445 95.82681775883809 127.55433194601716 H 0.0 **** 0.06
35295 H 65.481229511086 96.1716873414121 125.82892498205092 H 0.0 **** 0.06
35296 C 70.6792159205965 108.03926626181119 162.2263655728454 C 0.0 **** -0.24
35297 H 69.69733621369076 108.47406198628453 162.0363173925768 H 0.0 **** 0.06
35298 H 70.78826911686394 107.12218656901346 161.64660905155566 H 0.0 **** 0.06
35299 H 70.77574446089272 107.81239698908483 163.28817296601827 H 0.0 **** 0.06
35300 H 71.45337098727089 108.7490530938499 161.93444442819063 H 0.0 **** 0.06
35301 C 145.87419174772472 151.0920223185435 133.49804094431255 C 0.0 **** -0.24
35302 H 146.67244525553974 151.68561090577495 133.05184894195253 H 0.0 **** 0.06
35303 H 145.78263435619797 151.34387584140273 134.5552251494775 H 0.0 **** 0.06
35304 H 146.10952564443178 150.03277425742544 133.39573816244052 H 0.0 **** 0.06
35305 H 144.93438077719452 151.30559033011238 132.98949065974102 H 0.0 **** 0.06
35306 C 124.44308939043441 32.66214359565802 29.345280591501762 C 0.0 **** -0.24
35307 H 123.55745948579295 32.0797108099905 29.596252795499367 H 0.0 **** 0.06
35308 H 124.56935609281015 33.464704538320234 30.072996919394313 H 0.0 **** 0.06
35309 H 124.3270045765172 33.08919187800757 28.34974786235216 H 0.0 **** 0.06
35310 H 125.32061235311943 32.01466982435119 29.362903450621246 H 0.0 **** 0.06
35311 C 176.70654325149906 76.11621028186805 128.55905542218483 C 0.0 **** -0.24
35312 H 176.90699052160724 76.10017242545693 129.6301123907288 H 0.0 **** 0.06
35313 H 176.65534211063996 77.14932535454219 128.2153839919913 H 0.0 **** 0.06
35314 H 175.75774409305444 75.61831791295644 128.36052659554304 H 0.0 **** 0.06
35315 H 177.5072132372814 75.59651066769074 128.0323170993422 H 0.0 **** 0.06
35316 C 68.01418717383916 180.1115183719188 181.08336340868237 C 0.0 **** -0.24
35317 H 67.22969466355444 180.86636818821228 181.03352758130026 H 0.0 **** 0.06
35318 H 68.6919110389308 180.23655820108945 180.23858487011677 H 0.0 **** 0.06
35319 H 67.56475189813779 179.1184202912864 181.045107194814 H 0.0 **** 0.06
35320 H 68.56808062123629 180.22337671902622 182.01487781856764 H 0.0 **** 0.06
35321 C 44.357427961084795 72.04970447164719 104.7310984725783 C 0.0 **** -0.24
35322 H 44.361854360573545 72.92061245290004 104.0756398095029 H 0.0 **** 0.06
35323 H 43.40880301830498 72.00228496161151 105.26517754288533 H 0.0 **** 0.06
35324 H 45.17445855952988 72.13139636412355 105.4481694638874 H 0.0 **** 0.06
35325 H 44.48580059271836 71.1465549836087 104.1347555971711 H 0.0 **** 0.06
35326 C 158.91685332059748 138.22988054390464 0.9141233020239383 C 0.0 **** -0.24
35327 H 158.43278579846682 139.02294246365625 0.34494339440612976 H 0.0 **** 0.06
35328 H 158.90671113847583 138.48518436079866 1.9739499249481014 H 0.0 **** 0.06
35329 H 159.9472988029043 138.11742428889391 0.5774245416896235 H 0.0 **** 0.06
35330 H 158.38025244760848 137.29305759681654 0.7603551004091855 H 0.0 **** 0.06
35331 C 123.76979959103922 14.691184201030616 27.746074133491987 C 0.0 **** -0.24
35332 H 123.40814112794972 15.140987941782974 28.670099612289263 H 0.0 **** 0.06
35333 H 123.8179919413728 15.452045168962044 26.96577451319608 H 0.0 **** 0.06
35334 H 123.08893356845424 13.896809573585742 27.43806632872193 H 0.0 **** 0.06
35335 H 124.76387467059068 14.27390254236824 27.90938101772967 H 0.0 **** 0.06
35336 C 147.6434259742059 31.092967893751833 67.29487715383807 C 0.0 **** -0.24
35337 H 147.19238558311213 30.163872315142058 67.64421273633255 H 0.0 **** 0.06
35338 H 148.14752664572595 31.587506201386617 68.12549484632032 H 0.0 **** 0.06
35339 H 146.86633195349242 31.747592198931486 66.8998844028899 H 0.0 **** 0.06
35340 H 148.36630110755732 30.8725482956808 66.5091863024047 H 0.0 **** 0.06
35341 C 121.59677579857653 19.0762839659742 79.79124429420148 C 0.0 **** -0.24
35342 H 122.3170603313824 18.405076539344407 79.32301448205249 H 0.0 **** 0.06
35343 H 121.20351250639727 19.76515973484851 79.04328203918442 H 0.0 **** 0.06
35344 H 122.08747356030575 19.64058955480766 80.58388434963092 H 0.0 **** 0.06
35345 H 120.77778901580184 18.492245422885617 80.21333674854782 H 0.0 **** 0.06
35346 C 179.22196753277936 118.03370974625035 96.97714200515787 C 0.0 **** -0.24
35347 H 178.66223907118817 117.69419099851949 97.84829320725123 H 0.0 **** 0.06
35348 H 180.273414639933 117.77062716517601 97.09632640338089 H 0.0 **** 0.06
35349 H 179.12616040488848 119.11587239903697 96.88206635186214 H 0.0 **** 0.06
35350 H 178.8261376888234 117.55329097868868 96.08239013748755 H 0.0 **** 0.06
35351 C 70.32895775869909 160.1678073212058 75.81978513007081 C 0.0 **** -0.24
35352 H 70.65978815373882 159.2234215588133 76.2520780248926 H 0.0 **** 0.06
35353 H 70.33102853371048 160.93976553265892 76.58947506824184 H 0.0 **** 0.06
35354 H 69.32014208127384 160.05114242725108 75.42354328436204 H 0.0 **** 0.06
35355 H 71.00471487097292 160.45470003270432 75.01441363344325 H 0.0 **** 0.06
35356 C 45.467451542554386 4.456041459450944 159.01247254425854 C 0.0 **** -0.24
35357 H 46.06046117469077 3.5410392549921426 159.00519751711883 H 0.0 **** 0.06
35358 H 46.06020951244059 5.268271798475894 159.43424292039558 H 0.0 **** 0.06
35359 H 44.5735460954823 4.304933815175133 159.61770464629632 H 0.0 **** 0.06
35360 H 45.17803535759657 4.709871306338641 157.99286721074287 H 0.0 **** 0.06
35361 C 30.1825781484998 42.47819173159701 9.44927024593818 C 0.0 **** -0.24
35362 H 30.84652398145522 43.15613633540568 9.985163328778924 H 0.0 **** 0.06
35363 H 30.487403157316464 41.44800974873425 9.635863873524471 H 0.0 **** 0.06
35364 H 30.23678538040815 42.68517558472723 8.380131507526642 H 0.0 **** 0.06
35365 H 29.15901681445473 42.622642506044116 9.795798088059286 H 0.0 **** 0.06
35366 C 110.39033234602776 75.16299745758384 149.2075969964563 C 0.0 **** -0.24
35367 H 109.32260231169583 75.03644653535977 149.3859668245207 H 0.0 **** 0.06
35368 H 110.63185831170863 74.8286856946948 148.19801082009897 H 0.0 **** 0.06
35369 H 110.95197053875388 74.57219912334364 149.93035435630466 H 0.0 **** 0.06
35370 H 110.65358512073901 76.21496547356827 149.31427226915935 H 0.0 **** 0.06
35371 C 168.6246933533314 125.34994356330674 106.70360220028113 C 0.0 **** -0.24
35372 H 168.08941843952573 124.40510539942107 106.7981800832535 H 0.0 **** 0.06
35373 H 167.94780534557123 126.11376186680417 106.31998963070475 H 0.0 **** 0.06
35374 H 169.46038595230254 125.22656455075054 106.0150828819859 H 0.0 **** 0.06
35375 H 169.0003448154905 125.65307995159532 107.68029849064425 H 0.0 **** 0.06
35376 C 113.5005293170105 61.289263917357744 151.32232923840988 C 0.0 **** -0.24
35377 H 112.66278632439928 61.09426639405393 150.6533591426074 H 0.0 **** 0.06
35378 H 113.13365108010173 61.747879172421904 152.241350351091 H 0.0 **** 0.06
35379 H 114.20469751379618 61.96426190216289 150.835268411379 H 0.0 **** 0.06
35380 H 114.0025950344468 60.35115962731055 151.55971021579285 H 0.0 **** 0.06
35381 C 141.53540087635872 151.07620544592643 16.33078852499699 C 0.0 **** -0.24
35382 H 141.57116096503597 151.4207948247893 15.296736897441065 H 0.0 **** 0.06
35383 H 141.34699983688455 151.92457580399662 16.98894515862912 H 0.0 **** 0.06
35384 H 142.48854397412487 150.6172432279171 16.593019865010376 H 0.0 **** 0.06
35385 H 140.73653169464103 150.34385486936634 16.442833165918472 H 0.0 **** 0.06
35386 C 151.44198859347878 161.01094918055827 36.903037695260025 C 0.0 **** -0.24
35387 H 152.36931476537484 161.55929126997984 37.07138705870409 H 0.0 **** 0.06
35388 H 151.6093568326722 160.2392648706649 36.15082390114844 H 0.0 **** 0.06
35389 H 150.67196893062842 161.69821445893587 36.552446022415154 H 0.0 **** 0.06
35390 H 151.11970229460067 160.54742881702896 37.834822943444266 H 0.0 **** 0.06
35391 C 170.45849954568655 184.2798885885905 55.08890122902329 C 0.0 **** -0.24
35392 H 170.69341763440525 183.95618235420076 54.074744368310576 H 0.0 **** 0.06
35393 H 170.96278403905671 183.62838261146015 55.80333002264828 H 0.0 **** 0.06
35394 H 169.38173138900316 184.22757522595833 55.24649876996568 H 0.0 **** 0.06
35395 H 170.79771281336775 185.3060046992379 55.22989216383354 H 0.0 **** 0.06
35396 C 148.70746772953214 47.23302440452653 98.78369452609319 C 0.0 **** -0.24
35397 H 148.3715585294575 48.12912008321345 99.30523254033842 H 0.0 **** 0.06
35398 H 148.32958750840226 47.245031706784516 97.76163498155309 H 0.0 **** 0.06
35399 H 148.33199094888255 46.34994365664528 99.30044488825332 H 0.0 **** 0.06
35400 H 149.79700462260814 47.20883402053374 98.76857691104543 H 0.0 **** 0.06
35401 C 45.09795537469924 70.68312740172189 86.88723850542517 C 0.0 **** -0.24
35402 H 45.52593224362619 71.13917818924472 85.99386407618955 H 0.0 **** 0.06
35403 H 45.595810237052945 69.73473996296298 87.08530699456013 H 0.0 **** 0.06
35404 H 44.03257277896182 70.50926375334461 86.73042408285251 H 0.0 **** 0.06
35405 H 45.23643622143271 71.35095724107293 87.73730951209346 H 0.0 **** 0.06
35406 C 15.625507188206285 60.79261076586977 79.24491051662777 C 0.0 **** -0.24
35407 H 15.22828776795464 61.312760790077675 80.11645399999306 H 0.0 **** 0.06
35408 H 16.70898495303414 60.91009948280407 79.21353038241952 H 0.0 **** 0.06
35409 H 15.187709034237237 61.21362593294651 78.33891580949152 H 0.0 **** 0.06
35410 H 15.376599171893794 59.7336803568171 79.30989156634439 H 0.0 **** 0.06
35411 C 68.72098356265144 56.04661975874606 35.33466512943187 C 0.0 **** -0.24
35412 H 69.66105627217792 55.57541709730128 35.61871736961001 H 0.0 **** 0.06
35413 H 68.21080154110183 56.406316508786574 36.22823488995331 H 0.0 **** 0.06
35414 H 68.08938816845713 55.319329332859496 34.82407109378079 H 0.0 **** 0.06
35415 H 68.92176442083951 56.885150416097474 34.66791274323492 H 0.0 **** 0.06
35416 C 1.427555257006759 23.212517604372806 71.83152643933919 C 0.0 **** -0.24
35417 H 1.3461648119333915 24.092261427566143 72.4691664168368 H 0.0 **** 0.06
35418 H 1.0945198331511676 23.461998276295787 70.82332149896793 H 0.0 **** 0.06
35419 H 0.8044652418001306 22.413755795375266 72.23272682186975 H 0.0 **** 0.06
35420 H 2.465805428887279 22.881399702882902 71.79946568166282 H 0.0 **** 0.06
35421 C 48.970281245156656 129.3321604451453 46.74250523975532 C 0.0 **** -0.24
35422 H 48.42328329500775 130.18924439349786 46.34941400781692 H 0.0 **** 0.06
35423 H 49.81718528137762 129.11258802148774 46.09212698363646 H 0.0 **** 0.06
35424 H 48.308996349875684 128.4668171327645 46.783463689535566 H 0.0 **** 0.06
35425 H 49.33217105280714 129.56126683477885 47.745354390288895 H 0.0 **** 0.06
35426 C 151.81505182796081 61.14294757446221 9.633652520767896 C 0.0 **** -0.24
35427 H 151.6827845593411 61.21088780069478 8.5535632312206 H 0.0 **** 0.06
35428 H 152.1170772873156 60.12913496167525 9.899033388386336 H 0.0 **** 0.06
35429 H 150.87526531669545 61.38516746153772 10.129695057707401 H 0.0 **** 0.06
35430 H 152.58501353580743 61.846785738747386 9.95059760202792 H 0.0 **** 0.06
35431 C 65.49610367727608 18.8020653227656 161.58174406854477 C 0.0 **** -0.24
35432 H 64.4097424399822 18.86067042820359 161.5293988321419 H 0.0 **** 0.06
35433 H 65.7845462018388 18.01997042926139 162.28412420312446 H 0.0 **** 0.06
35434 H 65.89573483100845 19.758904457344215 161.91840589697415 H 0.0 **** 0.06
35435 H 65.89625030639658 18.568698522591596 160.5943100139839 H 0.0 **** 0.06
35436 C 40.17151441866474 182.3370222282867 110.97352715907998 C 0.0 **** -0.24
35437 H 40.689511276039525 182.63652638175083 111.88384185537386 H 0.0 **** 0.06
35438 H 39.39727771122844 183.0684031685089 110.73844665806028 H 0.0 **** 0.06
35439 H 39.71453337804837 181.35869406621717 111.12074362345699 H 0.0 **** 0.06
35440 H 40.88378568654434 182.28428236885395 110.15004460632143 H 0.0 **** 0.06
35441 C 40.989680674067074 154.69228012215115 71.29004694874226 C 0.0 **** -0.24
35442 H 40.87722521226061 155.40848543429928 70.47664295229174 H 0.0 **** 0.06
35443 H 40.32629751475895 153.84371745536208 71.12077035640834 H 0.0 **** 0.06
35444 H 40.731926703075544 155.17225258344286 72.23392653884036 H 0.0 **** 0.06
35445 H 42.02196137534122 154.3450012525293 71.32925530051267 H 0.0 **** 0.06
35446 C 58.748425779644805 67.41489444456772 35.883113069079286 C 0.0 **** -0.24
35447 H 59.08251411467323 66.43977210611459 36.23847174547666 H 0.0 **** 0.06
35448 H 59.51262826006186 68.16129451189887 36.09615257750022 H 0.0 **** 0.06
35449 H 57.82237201449799 67.68816872731097 36.38876507355039 H 0.0 **** 0.06
35450 H 58.57395340936698 67.36858229940326 34.80768247345472 H 0.0 **** 0.06
35451 C 40.934092351003585 42.61165287769734 74.94690686089814 C 0.0 **** -0.24
35452 H 41.15531071599824 41.63997025155285 75.388606617253 H 0.0 **** 0.06
35453 H 40.153428338629624 43.10437205476677 75.52777682313575 H 0.0 **** 0.06
35454 H 40.59254623293981 42.475001298583265 73.92096000396538 H 0.0 **** 0.06
35455 H 41.83351767132851 43.22638373436155 74.95194671950856 H 0.0 **** 0.06
35456 C 159.3029263617957 50.89628712126736 139.8738266896355 C 0.0 **** -0.24
35457 H 158.38254114711432 51.439008734485896 140.08908390235524 H 0.0 **** 0.06
35458 H 159.24402040141035 49.896069902369106 140.30363592566584 H 0.0 **** 0.06
35459 H 160.14934776862927 51.42906344226412 140.30906753894698 H 0.0 **** 0.06
35460 H 159.43674741356557 50.82260073054931 138.79476571106773 H 0.0 **** 0.06
35461 C 70.14951156594228 20.517987225276357 45.90222221844675 C 0.0 **** -0.24
35462 H 69.90052704612637 21.575547256071843 45.81392240884088 H 0.0 **** 0.06
35463 H 69.75259066912517 20.128977770153625 46.839348561831855 H 0.0 **** 0.06
35464 H 71.23351172778366 20.398237928993012 45.88796895931657 H 0.0 **** 0.06
35465 H 69.71309138774727 19.971544315894732 45.06637059980113 H 0.0 **** 0.06
35466 C 177.53257283801446 62.25518471515154 40.95810064534771 C 0.0 **** -0.24
35467 H 177.9329817631154 62.76943898215474 41.831379860417826 H 0.0 **** 0.06
35468 H 177.23239004808903 61.24565681770427 41.237104328745204 H 0.0 **** 0.06
35469 H 178.29870075909125 62.20688930454732 40.18375256806638 H 0.0 **** 0.06
35470 H 176.66828040226244 62.800666696795446 40.58046678414382 H 0.0 **** 0.06
35471 C 46.19883928987491 144.293661732362 165.37762252019752 C 0.0 **** -0.24
35472 H 46.26452085999132 145.38199983888538 165.38168182613208 H 0.0 **** 0.06
35473 H 46.94226043741202 143.88797098770587 164.6910160864902 H 0.0 **** 0.06
35474 H 45.20209647993035 143.99107241833002 165.05547991337573 H 0.0 **** 0.06
35475 H 46.38607586691566 143.91493468525778 166.38205600895947 H 0.0 **** 0.06
35476 C 7.021459004277403 183.64766554719642 76.11534168046305 C 0.0 **** -0.24
35477 H 7.759649913283056 182.874241537385 75.902485264191 H 0.0 **** 0.06
35478 H 7.281183529064123 184.150707803225 77.04711581519481 H 0.0 **** 0.06
35479 H 6.036330961627925 183.19220919285237 76.21026050400462 H 0.0 **** 0.06
35480 H 7.010528177612912 184.37225746698803 75.30148763001891 H 0.0 **** 0.06
35481 C 104.75137809154911 72.00643414533032 145.3477418025431 C 0.0 **** -0.24
35482 H 104.39607339996793 72.77508935537621 144.66090039052781 H 0.0 **** 0.06
35483 H 104.73007787394944 72.3918994282639 146.36705244109172 H 0.0 **** 0.06
35484 H 105.77185982139342 71.72842991023109 145.0849452303024 H 0.0 **** 0.06
35485 H 104.10640333113922 71.13035721262746 145.27587982640733 H 0.0 **** 0.06
35486 C 171.9316113748723 39.51717668913824 58.322539983621766 C 0.0 **** -0.24
35487 H 172.38703522586366 40.33810631908159 57.768678970586436 H 0.0 **** 0.06
35488 H 172.20102230872487 39.59643337806392 59.37576288984819 H 0.0 **** 0.06
35489 H 172.28995812082024 38.56741110962122 57.92502102004448 H 0.0 **** 0.06
35490 H 170.8469423838015 39.56870198906074 58.22067378707726 H 0.0 **** 0.06
35491 C 10.073885185244649 114.68500449810615 29.569227286009735 C 0.0 **** -0.24
35492 H 11.143907850030473 114.59907640512192 29.763109383924018 H 0.0 **** 0.06
35493 H 9.52390052371021 114.09003123690623 30.297728508536835 H 0.0 **** 0.06
35494 H 9.857057511800512 114.32072751575909 28.56413253998052 H 0.0 **** 0.06
35495 H 9.773029092779097 115.7299822165162 29.649611139735242 H 0.0 **** 0.06
35496 C 101.91398426974534 103.42592077629871 67.33867669776862 C 0.0 **** -0.24
35497 H 101.2146750301586 102.99943764525875 68.057774804875 H 0.0 **** 0.06
35498 H 102.92679077318043 103.10020512550761 67.57911526291527 H 0.0 **** 0.06
35499 H 101.86203223363033 104.51408260137248 67.38213018997008 H 0.0 **** 0.06
35500 H 101.65353102227924 103.08939453016819 66.33498622550057 H 0.0 **** 0.06
35501 C 163.1618311865746 164.22392407589854 175.00293348697508 C 0.0 **** -0.24
35502 H 164.2307063212202 164.29352251828294 174.8020346154019 H 0.0 **** 0.06
35503 H 162.60570348831442 164.5437164570215 174.12127471038372 H 0.0 **** 0.06
35504 H 162.9087958454071 164.86764929287142 175.8450678657722 H 0.0 **** 0.06
35505 H 162.90332424459294 163.1928445070571 175.24272387623404 H 0.0 **** 0.06
35506 C 96.30027819164359 170.05204513829966 54.15732408447488 C 0.0 **** -0.24
35507 H 95.74348792468892 170.5070608160214 54.97632938849404 H 0.0 **** 0.06
35508 H 96.2570495502613 168.9665889118246 54.247675796051695 H 0.0 **** 0.06
35509 H 97.33997804278992 170.37852777750305 54.19968798622787 H 0.0 **** 0.06
35510 H 95.86205428411184 170.35595810244524 53.20729879435085 H 0.0 **** 0.06
35511 C 22.381675449501472 80.75639363879027 102.12835512939715 C 0.0 **** -0.24
35512 H 21.564570019990413 80.83403123340551 102.845700575066 H 0.0 **** 0.06
35513 H 22.379494838702954 81.63270687582641 101.47998353530484 H 0.0 **** 0.06
35514 H 22.25102484257698 79.85773406003251 101.52568130549913 H 0.0 **** 0.06
35515 H 23.329963608578794 80.70102396074496 102.6625808492221 H 0.0 **** 0.06
35516 C 157.0844534381961 85.7149669986674 85.82729378482308 C 0.0 **** -0.24
35517 H 157.59435845745978 85.65292952883412 84.86593974718392 H 0.0 **** 0.06
35518 H 156.38901511619852 84.88056991734746 85.92444029054043 H 0.0 **** 0.06
35519 H 156.53483773120385 86.65514935649868 85.88707763510767 H 0.0 **** 0.06
35520 H 157.81960244792214 85.67121919198941 86.63171746646033 H 0.0 **** 0.06
35521 C 92.89582026349227 42.43105064468946 20.55933005014998 C 0.0 **** -0.24
35522 H 93.28673979566669 43.13483693519609 19.824155817369956 H 0.0 **** 0.06
35523 H 91.81407912683453 42.54312452764469 20.62883478187979 H 0.0 **** 0.06
35524 H 93.34642346678213 42.63395308748369 21.531568060444442 H 0.0 **** 0.06
35525 H 93.13766052018273 41.413706427943396 20.252163334292618 H 0.0 **** 0.06
35526 C 60.1265423517888 100.99480554645453 167.7660343232719 C 0.0 **** -0.24
35527 H 59.80835497696813 100.06481380520023 168.23728746281435 H 0.0 **** 0.06
35528 H 61.047620812796936 101.34333624927865 168.23430369726123 H 0.0 **** 0.06
35529 H 59.348396967253734 101.74819479969284 167.8884016240245 H 0.0 **** 0.06
35530 H 60.30214129258232 100.82153981744926 166.7038406557554 H 0.0 **** 0.06
35531 C 71.95516320097477 56.257991013640805 154.62998563383024 C 0.0 **** -0.24
35532 H 71.2898658832989 55.42100833497068 154.839849436594 H 0.0 **** 0.06
35533 H 72.82872505998073 55.89915612082446 154.08482732164794 H 0.0 **** 0.06
35534 H 72.27318472235164 56.71311002022961 155.5681217495598 H 0.0 **** 0.06
35535 H 71.42891376168195 56.99728046020853 154.02702959986576 H 0.0 **** 0.06
35536 C 64.09716948426723 153.64039416022035 35.9355214541101 C 0.0 **** -0.24
35537 H 63.42241742641332 153.1841899610218 35.21050160878819 H 0.0 **** 0.06
35538 H 64.2188775829842 152.9716869800981 36.78850225411354 H 0.0 **** 0.06
35539 H 63.67876722061702 154.58856025763984 36.273268344461826 H 0.0 **** 0.06
35540 H 65.06627839469292 153.815588029576 35.468354041610866 H 0.0 **** 0.06
35541 C 27.633810717205336 156.73895271823156 19.601284256712695 C 0.0 **** -0.24
35542 H 26.678949990314834 156.22354999243532 19.70728142111831 H 0.0 **** 0.06
35543 H 27.836554125109444 156.91500169160224 18.544312988409487 H 0.0 **** 0.06
35544 H 28.42705145511212 156.12503949155155 20.02608892643856 H 0.0 **** 0.06
35545 H 27.591673933538075 157.69308012558122 20.126971192638372 H 0.0 **** 0.06
35546 C 49.00490208543238 14.49635684447373 94.8820309747432 C 0.0 **** -0.24
35547 H 49.01601760262804 13.970033665628293 93.92692482819098 H 0.0 **** 0.06
35548 H 49.71893929697751 15.320330522235274 94.84977195081439 H 0.0 **** 0.06
35549 H 49.27970511166586 13.807079404668883 95.6792324691819 H 0.0 **** 0.06
35550 H 48.005485051039614 14.88960151635402 95.06818301818032 H 0.0 **** 0.06
35551 C 173.85422031219457 150.81171401008407 34.383093505685366 C 0.0 **** -0.24
35552 H 173.55849877462074 150.47015450147472 33.391833094317505 H 0.0 **** 0.06
35553 H 174.26641302493206 149.97527789474168 34.9487039625283 H 0.0 **** 0.06
35554 H 172.983492923843 151.20926364397434 34.90474326618893 H 0.0 **** 0.06
35555 H 174.6087275547931 151.59319640547824 34.28802262255128 H 0.0 **** 0.06
35556 C 143.30574041408875 73.65816250322126 141.8589362538092 C 0.0 **** -0.24
35557 H 142.49630366068192 72.97716318416371 142.11841146987632 H 0.0 **** 0.06
35558 H 143.49614863566165 74.33182080394658 142.6954071780383 H 0.0 **** 0.06
35559 H 143.02387178313148 74.23862973700318 140.9806411889217 H 0.0 **** 0.06
35560 H 144.20730012108686 73.08435972490258 141.6423355817937 H 0.0 **** 0.06
35561 C 11.19751984732784 155.87491409354544 61.64593118640087 C 0.0 **** -0.24
35562 H 10.949691108382495 155.516623373946 62.6454285883667 H 0.0 **** 0.06
35563 H 10.480970853403818 156.6409849977184 61.346524576564235 H 0.0 **** 0.06
35564 H 11.15571435785131 155.0437321438971 60.9421363108833 H 0.0 **** 0.06
35565 H 12.201338259494378 156.29768748421174 61.64974914123849 H 0.0 **** 0.06
35566 C 74.61996722826754 136.73748627200553 1.0972831530071971 C 0.0 **** -0.24
35567 H 74.65091376615747 136.08402374567356 1.9696336691736747 H 0.0 **** 0.06
35568 H 74.47209983719706 137.76751330075376 1.4212243659366948 H 0.0 **** 0.06
35569 H 73.79733304203977 136.437683922906 0.44789658437571234 H 0.0 **** 0.06
35570 H 75.56028355813261 136.65859086350338 0.5528007865945312 H 0.0 **** 0.06
35571 C 171.18040263609797 102.7777030115361 14.03374441935901 C 0.0 **** -0.24
35572 H 170.70457011205522 101.94191575456468 13.52187587637087 H 0.0 **** 0.06
35573 H 172.12676553190235 102.44868928017091 14.463448511769855 H 0.0 **** 0.06
35574 H 170.52623032908934 103.13760058876171 14.827306431922977 H 0.0 **** 0.06
35575 H 171.3657075209777 103.58173564907405 13.32077316737957 H 0.0 **** 0.06
35576 C 17.411263999321314 39.09561192965096 177.89263279612499 C 0.0 **** -0.24
35577 H 17.663982196329698 39.711776030754336 178.75651283347375 H 0.0 **** 0.06
35578 H 16.829672575120604 39.68442955588098 177.1835512966539 H 0.0 **** 0.06
35579 H 16.82547706245672 38.23656757543189 178.21975177373193 H 0.0 **** 0.06
35580 H 18.327534715508477 38.74985858958857 177.41360881231236 H 0.0 **** 0.06
35581 C 63.256732020532 183.4804642073937 167.8776716098184 C 0.0 **** -0.24
35582 H 63.960964454143735 183.75299651670144 168.66386127410303 H 0.0 **** 0.06
35583 H 63.804331956508165 183.26429049631025 166.95916540239625 H 0.0 **** 0.06
35584 H 62.567535586112584 184.30640797022983 167.70374196329914 H 0.0 **** 0.06
35585 H 62.69650226679795 182.59658905433747 168.18305940639675 H 0.0 **** 0.06
35586 C 84.3303277955871 74.45602570866714 174.18857962504592 C 0.0 **** -0.24
35587 H 84.2982122682173 74.08891551291502 173.16313189767385 H 0.0 **** 0.06
35588 H 85.35143510824992 74.74170443763116 174.4405932659268 H 0.0 **** 0.06
35589 H 83.99428751075703 73.67132869221291 174.866065323508 H 0.0 **** 0.06
35590 H 83.6755374172015 75.32322777049617 174.283845312131 H 0.0 **** 0.06
35591 C 167.95617798911923 100.118950366903 56.44133264034656 C 0.0 **** -0.24
35592 H 168.6656935749012 99.4621973833207 55.93775491955415 H 0.0 **** 0.06
35593 H 166.94487984837986 99.88761218341119 56.10586714982267 H 0.0 **** 0.06
35594 H 168.1909307451636 101.1558445944292 56.20221582538534 H 0.0 **** 0.06
35595 H 168.0253747708827 99.96962640293873 57.51931109451115 H 0.0 **** 0.06
35596 C 175.61968847023553 168.4300805948009 178.57406891384423 C 0.0 **** -0.24
35597 H 176.11854355739013 167.98202057866112 179.43280063026708 H 0.0 **** 0.06
35598 H 175.94240337784674 169.46544306227392 178.46635631852027 H 0.0 **** 0.06
35599 H 174.54004213540674 168.39867475792195 178.72286691338275 H 0.0 **** 0.06
35600 H 175.87921151015587 167.87325048854362 177.67323407446543 H 0.0 **** 0.06
35601 C 156.4696504517829 87.79258288531327 20.055880348338448 C 0.0 **** -0.24
35602 H 155.60402743788154 88.34664342060006 19.693681413013557 H 0.0 **** 0.06
35603 H 156.54994485997955 87.90998017479598 21.136488993389534 H 0.0 **** 0.06
35604 H 157.3715982630247 88.17687708986074 19.580274991104737 H 0.0 **** 0.06
35605 H 156.35176773301168 86.73637999283358 19.812628440100752 H 0.0 **** 0.06
35606 C 178.23299964621614 171.28776087686936 1.3203283603714624 C 0.0 **** -0.24
35607 H 177.75656029389643 170.32418584084098 1.5007280681968496 H 0.0 **** 0.06
35608 H 178.2473122679072 171.49199767935545 0.24951051773092559 H 0.0 **** 0.06
35609 H 179.25432178515192 171.26480508963044 1.6996507416974396 H 0.0 **** 0.06
35610 H 177.67301605840376 172.0709880097526 1.832136942243011 H 0.0 **** 0.06
35611 C 31.55800600252354 115.57981753841449 4.3623954382688055 C 0.0 **** -0.24
35612 H 30.46952510240817 115.61272317097803 4.319699974509859 H 0.0 **** 0.06
35613 H 31.876460255436456 115.42631076712314 5.393141239228328 H 0.0 **** 0.06
35614 H 31.964593339630312 116.52123442412193 3.99144614991269 H 0.0 **** 0.06
35615 H 31.921095396839974 114.75911539866223 3.742872654377919 H 0.0 **** 0.06
35616 C 61.59746383819089 112.55416519164612 146.30079185166485 C 0.0 **** -0.24
35617 H 61.346514974343904 112.55377025816637 145.23996628611366 H 0.0 **** 0.06
35618 H 62.67583127372225 112.44749409759157 146.41806636971955 H 0.0 **** 0.06
35619 H 61.09330212000046 111.72261754335841 146.79305278910576 H 0.0 **** 0.06
35620 H 61.27260467654037 113.49328166379246 146.74959599573867 H 0.0 **** 0.06
35621 C 69.86519990555709 54.271874688991886 21.388025066636942 C 0.0 **** -0.24
35622 H 70.08178895554488 53.21691777858602 21.556056204448197 H 0.0 **** 0.06
35623 H 68.82302819595236 54.38622305844224 21.089150591750304 H 0.0 **** 0.06
35624 H 70.51409299136071 54.65487640139537 20.600625672413976 H 0.0 **** 0.06
35625 H 70.0429710386864 54.82982282863948 22.308438946127566 H 0.0 **** 0.06
35626 C 138.41199429399018 67.48753037257988 124.71330500308632 C 0.0 **** -0.24
35627 H 138.74380381500492 68.45931468248291 124.34774644437489 H 0.0 **** 0.06
35628 H 139.24871671779488 66.78943323533443 124.69995120817491 H 0.0 **** 0.06
35629 H 137.61348915245628 67.11275217684201 124.07358147942746 H 0.0 **** 0.06
35630 H 138.0409544063183 67.59166531102105 125.7332479901125 H 0.0 **** 0.06
35631 C 42.51278892456561 125.45358927954406 145.09534496122015 C 0.0 **** -0.24
35632 H 42.597042047761775 124.68745357337811 144.32478682111667 H 0.0 **** 0.06
35633 H 41.497842344460665 125.85170937305178 145.10221575261912 H 0.0 **** 0.06
35634 H 43.21750509746832 126.25842536357594 144.88751728315606 H 0.0 **** 0.06
35635 H 42.73856681735464 125.0160283146394 146.068960472706 H 0.0 **** 0.06
35636 C 46.3545046390563 64.81917103798558 23.828122237700256 C 0.0 **** -0.24
35637 H 46.63594421137452 63.93800008404668 24.40488292096427 H 0.0 **** 0.06
35638 H 47.22679554667127 65.1976437296299 23.294322292543654 H 0.0 **** 0.06
35639 H 45.9780523153257 65.5887215411691 24.50126338787925 H 0.0 **** 0.06
35640 H 45.577558262115815 64.55097616874835 23.111724848027706 H 0.0 **** 0.06
35641 C 100.10556919238991 96.97514716307442 170.28729660013207 C 0.0 **** -0.24
35642 H 101.09608410148354 96.52393107516251 170.23994058859546 H 0.0 **** 0.06
35643 H 99.99140664948226 97.6875251131571 169.46942132467265 H 0.0 **** 0.06
35644 H 99.9866536558963 97.49187904861948 171.23960307146314 H 0.0 **** 0.06
35645 H 99.34792385638337 96.19640859215302 170.19972864446717 H 0.0 **** 0.06
35646 C 32.84596119899793 73.61933292067857 120.0926575008941 C 0.0 **** -0.24
35647 H 32.72852469559702 72.84561927137742 119.33350452851077 H 0.0 **** 0.06
35648 H 32.39511111780885 74.54640201480214 119.73755120686052 H 0.0 **** 0.06
35649 H 33.9058634759881 73.78041440214918 120.28576432730914 H 0.0 **** 0.06
35650 H 32.35209332761555 73.30321406663916 121.0115518155264 H 0.0 **** 0.06
35651 C 90.53217025936014 97.97186713190727 129.77687665544772 C 0.0 **** -0.24
35652 H 91.32705544807816 98.18978669460408 130.49103629806876 H 0.0 **** 0.06
35653 H 90.84736788285663 97.16168597124938 129.11935227736882 H 0.0 **** 0.06
35654 H 90.32292291060874 98.86206139704201 129.18449244141237 H 0.0 **** 0.06
35655 H 89.63298600785198 97.67297392175722 130.3156835744577 H 0.0 **** 0.06
35656 C 95.88559613412531 30.937785569238457 66.22084027286621 C 0.0 **** -0.24
35657 H 94.91687804641197 31.427849373852837 66.31741714525589 H 0.0 **** 0.06
35658 H 96.34334397111303 31.22075355461979 65.27240871206675 H 0.0 **** 0.06
35659 H 95.75023076762386 29.8566486615062 66.25121406989615 H 0.0 **** 0.06
35660 H 96.5311869950761 31.246528694598112 67.0425168912933 H 0.0 **** 0.06
35661 C 121.8302968235076 87.08168603017712 147.86618204664455 C 0.0 **** -0.24
35662 H 121.29129165906228 86.87271839539683 148.79055498940733 H 0.0 **** 0.06
35663 H 122.85698668701697 87.36394317568683 148.10040673376727 H 0.0 **** 0.06
35664 H 121.34036230857969 87.89897182068272 147.33797238785348 H 0.0 **** 0.06
35665 H 121.83265740614907 86.1919534355281 147.23786233566574 H 0.0 **** 0.06
35666 C 81.48541456279541 32.74212372727108 5.1007425942617886 C 0.0 **** -0.24
35667 H 82.26022694846893 32.99433796503267 4.376893090833107 H 0.0 **** 0.06
35668 H 80.69535202671538 33.49220088051261 5.061438359758824 H 0.0 **** 0.06
35669 H 81.91674613952253 32.71965168346385 6.101935613655058 H 0.0 **** 0.06
35670 H 81.07002323779845 31.762909109736654 4.862305711348114 H 0.0 **** 0.06
35671 C 114.95244274729 30.034026643385815 152.25602151897613 C 0.0 **** -0.24
35672 H 114.88545174008185 31.0433075626042 151.84833582514318 H 0.0 **** 0.06
35673 H 115.97887507534004 29.835698476582863 152.5673525646098 H 0.0 **** 0.06
35674 H 114.6587671098011 29.313597506408044 151.49358869975129 H 0.0 **** 0.06
35675 H 114.28911853142377 29.9449506592551 153.1165247579396 H 0.0 **** 0.06
35676 C 38.5057769923973 126.18075679692312 23.753051483546116 C 0.0 **** -0.24
35677 H 38.19029514049015 125.37093415505235 24.40998513577256 H 0.0 **** 0.06
35678 H 39.568341424366395 126.07571287283527 23.53136252833623 H 0.0 **** 0.06
35679 H 38.329869678972216 127.13758847476 24.244882884715196 H 0.0 **** 0.06
35680 H 37.936109888767845 126.13874419101485 22.825124936770138 H 0.0 **** 0.06
35681 C 42.731885433743784 85.23114378995723 117.10693219954085 C 0.0 **** -0.24
35682 H 43.225147949241574 85.16371906341732 118.07701332000441 H 0.0 **** 0.06
35683 H 43.478601431772944 85.16703362817793 116.31510110440074 H 0.0 **** 0.06
35684 H 42.20457590786465 86.18241931885206 117.03361847964125 H 0.0 **** 0.06
35685 H 42.020466558603445 84.4116139406882 117.00471490279277 H 0.0 **** 0.06
35686 C 35.83076564262487 67.56442562289305 86.3335680934183 C 0.0 **** -0.24
35687 H 34.94004274808617 67.31150324423709 85.75881479959155 H 0.0 **** 0.06
35688 H 36.09669565640928 66.7263262751033 86.9780252936519 H 0.0 **** 0.06
35689 H 35.62952917376339 68.44419305914431 86.9457678434451 H 0.0 **** 0.06
35690 H 36.65421754192943 67.77686707284829 85.65263789680934 H 0.0 **** 0.06
35691 C 75.04166737147318 112.89840490297057 32.215383024352434 C 0.0 **** -0.24
35692 H 75.21211315530991 113.16782666330288 31.1734614861561 H 0.0 **** 0.06
35693 H 75.50228827623181 111.93261266912056 32.421082039932855 H 0.0 **** 0.06
35694 H 73.96940604863346 112.83852728800873 32.40425523576056 H 0.0 **** 0.06
35695 H 75.481955733821 113.65692787515626 32.86267231373671 H 0.0 **** 0.06
35696 C 109.20437995146416 143.918199275314 35.32405827129827 C 0.0 **** -0.24
35697 H 110.20694144638252 144.34575265246247 35.28539362919611 H 0.0 **** 0.06
35698 H 109.23674053304644 142.8846175259061 34.97668387621022 H 0.0 **** 0.06
35699 H 108.53837802032352 144.49645518718492 34.68453746456578 H 0.0 **** 0.06
35700 H 108.83752238399872 143.94519464615314 36.34999498102795 H 0.0 **** 0.06
35701 C 135.14343909461695 12.823930812366228 6.343587194154921 C 0.0 **** -0.24
35702 H 135.8776389424973 12.018854192383117 6.366944713001303 H 0.0 **** 0.06
35703 H 135.61847224267996 13.75701875156065 6.645727487305564 H 0.0 **** 0.06
35704 H 134.32817305077316 12.592120257663737 7.030096878690671 H 0.0 **** 0.06
35705 H 134.74877187974317 12.926087998736477 5.333257033313487 H 0.0 **** 0.06
35706 C 46.761939254983446 182.49814681103058 20.701788428816087 C 0.0 **** -0.24
35707 H 46.24589041308927 181.56884720298603 20.459591802308154 H 0.0 **** 0.06
35708 H 47.80585586571037 182.4228172295679 20.398475206634032 H 0.0 **** 0.06
35709 H 46.706922069047735 182.6740934976876 21.776411736381476 H 0.0 **** 0.06
35710 H 46.2878212849817 183.32532451834436 20.173737722920038 H 0.0 **** 0.06
35711 C 64.25446040797807 173.87521620998848 151.5066644538709 C 0.0 **** -0.24
35712 H 63.54981120457265 173.17650320843092 151.95745154418742 H 0.0 **** 0.06
35713 H 64.77992930105316 174.4184775411609 152.29347763794627 H 0.0 **** 0.06
35714 H 63.71284553848194 174.5816325907033 150.87739853276992 H 0.0 **** 0.06
35715 H 64.97444847862337 173.3262068743062 150.9008845783395 H 0.0 **** 0.06
35716 C 152.7363776099788 3.42324565338744 14.179258191305017 C 0.0 **** -0.24
35717 H 152.73928836557593 2.4695527232081034 14.706593638406396 H 0.0 **** 0.06
35718 H 153.72907322688636 3.6170491555012845 13.773902842790513 H 0.0 **** 0.06
35719 H 152.4635313273064 4.220582610878509 14.871271247163513 H 0.0 **** 0.06
35720 H 152.01223679262438 3.3855765455374183 13.365053982502602 H 0.0 **** 0.06
35721 C 8.313992208543425 41.138205739454406 89.2776841399699 C 0.0 **** -0.24
35722 H 7.350622827338498 41.63229510332428 89.40448517928412 H 0.0 **** 0.06
35723 H 9.079371656063046 41.8841412647148 89.06343928637382 H 0.0 **** 0.06
35724 H 8.252428438806163 40.43127909883094 88.45091272951085 H 0.0 **** 0.06
35725 H 8.571322043937016 40.60590082115186 90.19255142794943 H 0.0 **** 0.06
35726 C 93.84494332991936 44.2257092443524 125.44224604961853 C 0.0 **** -0.24
35727 H 94.83774340076273 43.79014912722067 125.3269777517393 H 0.0 **** 0.06
35728 H 93.36531961614436 43.805574659151546 126.3273044830995 H 0.0 **** 0.06
35729 H 93.24469552787274 43.99966553255277 124.56146051565601 H 0.0 **** 0.06
35730 H 93.93341385922183 45.30582309455241 125.5544261434569 H 0.0 **** 0.06
35731 C 44.114621299753324 16.151199499260237 138.42439337496137 C 0.0 **** -0.24
35732 H 44.70649461201046 15.624678327284968 139.17218195933634 H 0.0 **** 0.06
35733 H 43.161884595322775 16.451026968488343 138.85982948033353 H 0.0 **** 0.06
35734 H 43.93507921013514 15.492775873900108 137.5744531816755 H 0.0 **** 0.06
35735 H 44.656798262638844 17.036198915490893 138.08974943924136 H 0.0 **** 0.06
35736 C 156.41126532235313 121.34647632827104 69.96093837645209 C 0.0 **** -0.24
35737 H 156.0107047187438 121.04391750463482 70.92803697729035 H 0.0 **** 0.06
35738 H 155.67195620225368 121.95091658422338 69.4349608323341 H 0.0 **** 0.06
35739 H 156.64343253178976 120.46000768263211 69.37036399470466 H 0.0 **** 0.06
35740 H 157.31974939280127 121.93157832812675 70.11074410676409 H 0.0 **** 0.06
35741 C 71.44949103615342 125.42587281426908 36.58602953578162 C 0.0 **** -0.24
35742 H 71.45200437051471 125.46198391268537 35.49653009093795 H 0.0 **** 0.06
35743 H 71.36480007529383 124.38971850570708 36.91500837369047 H 0.0 **** 0.06
35744 H 70.6033614190578 125.99792939752969 36.96632322828883 H 0.0 **** 0.06
35745 H 72.37700009263267 125.85327424439721 36.96639951243466 H 0.0 **** 0.06
35746 C 4.040640250289499 139.60138259415373 26.510202224669115 C 0.0 **** -0.24
35747 H 4.146880160959682 139.0158609405109 25.59719191364428 H 0.0 **** 0.06
35748 H 3.716347667800143 138.95051819353546 27.323073833207275 H 0.0 **** 0.06
35749 H 3.2989258143482303 140.38507289345398 26.35443449632197 H 0.0 **** 0.06
35750 H 4.998638197270125 140.05314636686614 26.76606893039451 H 0.0 **** 0.06
35751 C 20.385534166638955 110.31587727153935 62.58434572783722 C 0.0 **** -0.24
35752 H 19.60372853955272 109.89908137545346 63.219402031623915 H 0.0 **** 0.06
35753 H 20.071118522712396 110.26536174230968 61.54135417680888 H 0.0 **** 0.06
35754 H 21.303998560374524 109.74351546163287 62.71613529544284 H 0.0 **** 0.06
35755 H 20.561881932804482 111.3554774763925 62.861495970355776 H 0.0 **** 0.06
35756 C 45.69395939219379 45.50206463666356 44.51577305674435 C 0.0 **** -0.24
35757 H 45.337059671527186 46.261989599642334 43.82015676944802 H 0.0 **** 0.06
35758 H 46.553830424707485 45.88608478862159 45.06406465618629 H 0.0 **** 0.06
35759 H 45.985295614642325 44.61017803016148 43.96008890626334 H 0.0 **** 0.06
35760 H 44.89790693654032 45.249148537829996 45.21672763465749 H 0.0 **** 0.06
35761 C 30.544280816533302 179.07996525772091 149.0432574767463 C 0.0 **** -0.24
35762 H 30.652471814854977 178.02556669235528 149.29420905642073 H 0.0 **** 0.06
35763 H 29.570267176337126 179.24559741794098 148.5814633545712 H 0.0 **** 0.06
35764 H 31.33105362660612 179.37094668857705 148.3480152964352 H 0.0 **** 0.06
35765 H 30.621089616422566 179.67897797373425 149.95168115719093 H 0.0 **** 0.06
35766 C 41.16525960604142 24.608792682291252 75.13950030085164 C 0.0 **** -0.24
35767 H 41.87219621560237 24.010109953606232 75.71281082150699 H 0.0 **** 0.06
35768 H 40.24193028607395 24.044413995933212 74.99913615213528 H 0.0 **** 0.06
35769 H 41.59607803414322 24.848235214370007 74.16800759100565 H 0.0 **** 0.06
35770 H 40.94861785073505 25.531046589009406 75.67953869760089 H 0.0 **** 0.06
35771 C 66.08860094193392 170.00607689477675 61.828027659866166 C 0.0 **** -0.24
35772 H 67.04489703696143 169.82313809150236 61.3375212403721 H 0.0 **** 0.06
35773 H 66.26233838874582 170.4307893579125 62.81637323147311 H 0.0 **** 0.06
35774 H 65.54549781683517 169.0662837314173 61.925997862659415 H 0.0 **** 0.06
35775 H 65.50142250008933 170.70370697023492 61.22981269118418 H 0.0 **** 0.06
35776 C 93.58234685170775 0.08712393265770402 77.79255741799446 C 0.0 **** -0.24
35777 H 92.72952258947537 -0.2833827110490006 78.36245389910883 H 0.0 **** 0.06
35778 H 94.50605559570552 -0.17961885255948573 78.30635680771051 H 0.0 **** 0.06
35779 H 93.51533514149078 1.1716854962599257 77.7037259914174 H 0.0 **** 0.06
35780 H 93.57772533632117 -0.36033331654513745 76.79888392876526 H 0.0 **** 0.06
35781 C 82.26877220508985 102.60500532230462 60.916151235743015 C 0.0 **** -0.24
35782 H 81.65179949787004 103.25183933662846 60.29281682536673 H 0.0 **** 0.06
35783 H 83.07136390893663 102.17837042359163 60.312582149579015 H 0.0 **** 0.06
35784 H 81.65590217574868 101.80197151272019 61.325790583651454 H 0.0 **** 0.06
35785 H 82.69700808409782 103.18747650214836 61.7320377017553 H 0.0 **** 0.06
35786 C 74.84604736750639 175.28189722174784 3.4769650621555 C 0.0 **** -0.24
35787 H 75.47352955805407 175.88262031926195 4.135047285977464 H 0.0 **** 0.06
35788 H 75.47347235860072 174.60989911426805 2.8911324958435785 H 0.0 **** 0.06
35789 H 74.29082891079558 175.93824355567483 2.8056697784917333 H 0.0 **** 0.06
35790 H 74.14658160556266 174.69837138773767 4.074410103449679 H 0.0 **** 0.06
35791 C 14.644529485940865 126.21426966240064 73.04038345102322 C 0.0 **** -0.24
35792 H 13.738495130391584 126.16946073955573 72.4369190818635 H 0.0 **** 0.06
35793 H 14.409980163318352 125.94175936897604 74.06949380682636 H 0.0 **** 0.06
35794 H 15.047903320221849 127.22702263065752 73.01517708527263 H 0.0 **** 0.06
35795 H 15.382714027308708 125.51964700526283 72.63810203384736 H 0.0 **** 0.06
35796 C 90.10430420039886 184.46021523536928 61.856676223813565 C 0.0 **** -0.24
35797 H 90.4093256424823 185.25529252151506 61.177396932814275 H 0.0 **** 0.06
35798 H 90.65123308687795 184.55431327540938 62.79521217589061 H 0.0 **** 0.06
35799 H 90.32213614703495 183.49211435635783 61.40460618784542 H 0.0 **** 0.06
35800 H 89.0339975876306 184.538463588211 62.0500058302506 H 0.0 **** 0.06
35801 C 180.85737048920475 71.29838029151615 1.3533901484784323 C 0.0 **** -0.24
35802 H 180.87174319417835 70.68185548942601 2.2515910901291676 H 0.0 **** 0.06
35803 H 180.023980840438 70.9963622956511 0.7189059546691112 H 0.0 **** 0.06
35804 H 181.79380792171634 71.16995773973893 0.810568865340727 H 0.0 **** 0.06
35805 H 180.74026549176813 72.34539522902467 1.634197058718378 H 0.0 **** 0.06
35806 C 32.856215546821716 85.33736278232838 159.3812925285011 C 0.0 **** -0.24
35807 H 33.856584673358725 85.72053522836892 159.17811805000596 H 0.0 **** 0.06
35808 H 32.65917760872611 84.4782456528192 158.73914052102273 H 0.0 **** 0.06
35809 H 32.12175298443293 86.11653261611202 159.18042827639977 H 0.0 **** 0.06
35810 H 32.78945535237375 85.0338282130375 160.42627540716543 H 0.0 **** 0.06
35811 C 42.24611978026964 114.3834883541658 5.90684819621498 C 0.0 **** -0.24
35812 H 41.43646296768421 114.51935207149357 5.188403131934081 H 0.0 **** 0.06
35813 H 42.07875442632242 113.46640129557382 6.4720123649182995 H 0.0 **** 0.06
35814 H 42.27141615319897 115.23277929879633 6.589709347092139 H 0.0 **** 0.06
35815 H 43.19485947627639 114.31570040168616 5.375851858858709 H 0.0 **** 0.06
35816 C 146.90261597873376 184.06891029159164 12.397578909952529 C 0.0 **** -0.24
35817 H 147.0928593333969 184.00590939283188 13.469149124147414 H 0.0 **** 0.06
35818 H 145.98195985570186 184.62729993530138 12.225879487844082 H 0.0 **** 0.06
35819 H 146.79935159082856 183.06402428061728 11.9880890622982 H 0.0 **** 0.06
35820 H 147.73368985478004 184.57736389232298 11.910220235357507 H 0.0 **** 0.06
35821 C 135.1997342261747 88.67694655936516 44.29914587144185 C 0.0 **** -0.24
35822 H 135.1897677531217 89.73077353570439 44.02079225227888 H 0.0 **** 0.06
35823 H 134.82821366328596 88.5663892513674 45.31874920568907 H 0.0 **** 0.06
35824 H 136.21923437809056 88.29581711834756 44.24091228226857 H 0.0 **** 0.06
35825 H 134.56202205631473 88.11505341974042 43.61705083391962 H 0.0 **** 0.06
35826 C 132.52984189946528 40.94879522057056 97.78468883086424 C 0.0 **** -0.24
35827 H 131.48949712514144 40.623759057098255 97.8122137568518 H 0.0 **** 0.06
35828 H 132.87805388149053 40.96297345234842 96.75155922910966 H 0.0 **** 0.06
35829 H 133.14135959629505 40.25971275271513 98.36560687716269 H 0.0 **** 0.06
35830 H 132.60785380233148 41.949842096649206 98.20837580019048 H 0.0 **** 0.06
35831 C 22.26854632312694 173.5684908065479 78.01497998044499 C 0.0 **** -0.24
35832 H 21.67393948358685 173.287628076697 77.14697125833067 H 0.0 **** 0.06
35833 H 22.083952817604256 174.61587854230163 78.25842933415652 H 0.0 **** 0.06
35834 H 23.32581461654189 173.42745022143782 77.79218713134003 H 0.0 **** 0.06
35835 H 21.989984722131453 172.9435605102597 78.86444155251661 H 0.0 **** 0.06
35836 C 42.823977561981906 159.09905420952498 80.56376834660587 C 0.0 **** -0.24
35837 H 43.65434709901865 158.8094676485294 79.91916813082554 H 0.0 **** 0.06
35838 H 43.02996302436725 160.07431578519308 81.00507007641302 H 0.0 **** 0.06
35839 H 42.70331573223051 158.3589001251939 81.35405436367508 H 0.0 **** 0.06
35840 H 41.90891461966534 159.15270336823247 79.97396758183139 H 0.0 **** 0.06
35841 C 130.65071277629647 13.91366831272751 40.67822929755083 C 0.0 **** -0.24
35842 H 131.57719091236783 13.46250627926213 41.032791611302045 H 0.0 **** 0.06
35843 H 130.52379661084257 14.893745832227637 41.138910017055494 H 0.0 **** 0.06
35844 H 129.80952056820558 13.274058260524782 40.94586528005705 H 0.0 **** 0.06
35845 H 130.69179147593445 14.023162156401327 39.59484617769435 H 0.0 **** 0.06
35846 C 114.4396664065879 121.62181347727967 140.302771631315 C 0.0 **** -0.24
35847 H 114.04867619031042 122.45862143789428 139.72323175095306 H 0.0 **** 0.06
35848 H 115.04425608010878 120.98475184248046 139.65797543130793 H 0.0 **** 0.06
35849 H 113.61037288757224 121.04405775238267 140.71156981907723 H 0.0 **** 0.06
35850 H 115.05431739270504 122.00201065330141 141.118664169559 H 0.0 **** 0.06
35851 C 152.20858591377936 111.5425537941531 41.816438608311216 C 0.0 **** -0.24
35852 H 152.03598681300525 112.07909131675984 40.883758391431854 H 0.0 **** 0.06
35853 H 151.84201982909104 112.13982781281078 42.652100889643975 H 0.0 **** 0.06
35854 H 153.2765256531028 111.36042751200932 41.93914602080142 H 0.0 **** 0.06
35855 H 151.67743251011396 110.59028770683977 41.79081126435085 H 0.0 **** 0.06
35856 C 130.26624702142732 156.3964083587743 143.74872075442104 C 0.0 **** -0.24
35857 H 129.39857529442952 156.25527567525023 143.10394194492622 H 0.0 **** 0.06
35858 H 130.4802045540464 155.4672708969104 144.27835284470143 H 0.0 **** 0.06
35859 H 130.0587676012459 157.18602708115694 144.47023922457288 H 0.0 **** 0.06
35860 H 131.12804652010243 156.67499758802057 143.14173224995523 H 0.0 **** 0.06
35861 C 12.70243765514158 7.558616113466961 163.79915485080022 C 0.0 **** -0.24
35862 H 11.859977803772267 7.79428536128043 163.14875899255978 H 0.0 **** 0.06
35863 H 13.278647278103449 6.741300495107971 163.3652101316739 H 0.0 **** 0.06
35864 H 12.33187399197368 7.260926001980508 164.78037019289727 H 0.0 **** 0.06
35865 H 13.33836030197773 8.437725228870583 163.90267252962744 H 0.0 **** 0.06
35866 C 179.03793641911005 39.671848865 30.841355438498283 C 0.0 **** -0.24
35867 H 179.63581839261295 39.31353791605619 31.679966073980097 H 0.0 **** 0.06
35868 H 178.1751809023089 40.220538034316036 31.21890076439152 H 0.0 **** 0.06
35869 H 178.69826693865312 38.82121992050246 30.249570484262733 H 0.0 **** 0.06
35870 H 179.6438606885365 40.32952018886016 30.218184057058068 H 0.0 **** 0.06
35871 C 146.16180001734233 86.79966931205404 61.367407494516385 C 0.0 **** -0.24
35872 H 147.24072596438174 86.9005365717578 61.24719944629143 H 0.0 **** 0.06
35873 H 145.9410888604175 86.42974649609495 62.36978372794445 H 0.0 **** 0.06
35874 H 145.77794475729377 86.09602865268947 60.62749103284273 H 0.0 **** 0.06
35875 H 145.68784414602572 87.77016668300242 61.22520336614659 H 0.0 **** 0.06
35876 C 71.7916828664854 166.80866703967723 83.79849742881493 C 0.0 **** -0.24
35877 H 70.91288234629492 167.20637775504363 83.29112952434434 H 0.0 **** 0.06
35878 H 72.64727907023028 166.84212944514002 83.12339315001651 H 0.0 **** 0.06
35879 H 71.60296347692382 165.77795968606614 84.09656734462533 H 0.0 **** 0.06
35880 H 72.002400712155 167.41029982204975 84.68327670920542 H 0.0 **** 0.06
35881 C 159.91193392828077 132.42981123882083 71.97246420467387 C 0.0 **** -0.24
35882 H 159.36111328766327 131.5463549997197 72.29386121189697 H 0.0 **** 0.06
35883 H 159.54106975022177 133.30371362124794 72.50859270131573 H 0.0 **** 0.06
35884 H 159.7729032873096 132.57482023048607 70.90083122060162 H 0.0 **** 0.06
35885 H 160.97131669955107 132.29482488437856 72.18650660096722 H 0.0 **** 0.06
35886 C 66.1425050962659 43.761069784943516 123.36595983215314 C 0.0 **** -0.24
35887 H 65.7915512612027 44.69995474617505 123.79463314210194 H 0.0 **** 0.06
35888 H 65.47205751058124 42.95370946153395 123.66210967483785 H 0.0 **** 0.06
35889 H 67.1491453498445 43.55012862125801 123.7291617442515 H 0.0 **** 0.06
35890 H 66.1572637707809 43.84092015464506 122.27961162384189 H 0.0 **** 0.06
35891 C 68.7147627329568 88.53653985909254 160.34684216580655 C 0.0 **** -0.24
35892 H 68.2917396300727 87.75718366779991 160.97977242749 H 0.0 **** 0.06
35893 H 68.05877545195165 89.40691719323196 160.35510913022298 H 0.0 **** 0.06
35894 H 68.81034608944057 88.16378458207619 159.32681045078598 H 0.0 **** 0.06
35895 H 69.69721257744425 88.81826416654663 160.7246543698304 H 0.0 **** 0.06
35896 C 70.03643551205178 181.2673783393946 57.113915707289095 C 0.0 **** -0.24
35897 H 70.31977787843087 181.9091629459277 56.27889653492872 H 0.0 **** 0.06
35898 H 70.69525560287849 180.39882774541033 57.143213249958706 H 0.0 **** 0.06
35899 H 69.00506323127382 180.9382980291796 56.98592063476519 H 0.0 **** 0.06
35900 H 70.12808067435952 181.82430343649358 58.046251996716734 H 0.0 **** 0.06
35901 C 90.08079585227193 125.8198530205115 118.11474489168738 C 0.0 **** -0.24
35902 H 90.61208196865778 126.7054135757029 118.46322146809824 H 0.0 **** 0.06
35903 H 89.9530538434193 125.87521961851446 117.03369175646826 H 0.0 **** 0.06
35904 H 89.10356494098227 125.77008505186758 118.59535103696204 H 0.0 **** 0.06
35905 H 90.65713328267117 124.92959515820708 118.36779327509309 H 0.0 **** 0.06
35906 C 14.771267856190121 120.65536661075747 77.39296793209964 C 0.0 **** -0.24
35907 H 15.775978395982435 120.24780518705789 77.28024355949702 H 0.0 **** 0.06
35908 H 14.082172730687546 119.85412115227676 77.66160897334788 H 0.0 **** 0.06
35909 H 14.454083134351947 121.10686347272006 76.45268562818099 H 0.0 **** 0.06
35910 H 14.77220732173555 121.41194253555135 78.17707974130033 H 0.0 **** 0.06
35911 C 56.23160364056379 102.03909260848876 182.09340944680895 C 0.0 **** -0.24
35912 H 56.250458063839574 101.00264837095604 181.75482674816317 H 0.0 **** 0.06
35913 H 56.308985575083994 102.7034599073648 181.23342196832323 H 0.0 **** 0.06
35914 H 57.07045622841713 102.21584488797002 182.76704981503792 H 0.0 **** 0.06
35915 H 55.29707005202533 102.23149231833402 182.6194053218657 H 0.0 **** 0.06
35916 C 99.01663049105342 119.4185668003032 68.44806111058438 C 0.0 **** -0.24
35917 H 100.06014449690268 119.10853675581377 68.48469731986772 H 0.0 **** 0.06
35918 H 98.45248645134983 118.8882322853553 69.21549265599981 H 0.0 **** 0.06
35919 H 98.60292803417876 119.18698961996112 67.46686355875552 H 0.0 **** 0.06
35920 H 98.94998448414576 120.49248226938299 68.62480742551274 H 0.0 **** 0.06
35921 C 71.72995853050504 13.655249883202714 28.724872029206068 C 0.0 **** -0.24
35922 H 71.30794181795605 13.440831832629335 27.74298448015793 H 0.0 **** 0.06
35923 H 72.76592060817015 13.318774329514028 28.756591459415617 H 0.0 **** 0.06
35924 H 71.15404687400941 13.13246427810354 29.48917521763812 H 0.0 **** 0.06
35925 H 71.69000644379389 14.728119302463071 28.911551937568063 H 0.0 **** 0.06
35926 C 23.721869090860196 170.79761482329343 83.80107021178094 C 0.0 **** -0.24
35927 H 22.964854697865007 170.32429557798628 83.17671579733616 H 0.0 **** 0.06
35928 H 23.25415298399747 171.56309290941425 84.4211124140553 H 0.0 **** 0.06
35929 H 24.480432102392058 171.25710340457474 83.166818067711 H 0.0 **** 0.06
35930 H 24.187400064193866 170.04741321552928 84.43892425560352 H 0.0 **** 0.06
35931 C 97.90626523481593 126.33671543720344 170.41959872281646 C 0.0 **** -0.24
35932 H 97.53539548403803 125.97359610374916 171.3780758171003 H 0.0 **** 0.06
35933 H 98.54457951013377 125.57898243078692 169.9656714939899 H 0.0 **** 0.06
35934 H 98.48083918401552 127.25057164629912 170.57549935009067 H 0.0 **** 0.06
35935 H 97.06426043232487 126.54663342374347 169.75982852003906 H 0.0 **** 0.06
35936 C 179.50786559269628 49.42029823966715 162.8871522528378 C 0.0 **** -0.24
35937 H 179.31582644497826 49.0289672272105 161.88801243652998 H 0.0 **** 0.06
35938 H 180.58111242875486 49.54689208248273 163.02792363192518 H 0.0 **** 0.06
35939 H 179.12279025322982 48.722179790327075 163.63013406033866 H 0.0 **** 0.06
35940 H 179.00997678128974 50.383486797449876 163.00119570918756 H 0.0 **** 0.06
35941 C 45.54465273354043 173.12436730997138 56.448213570926754 C 0.0 **** -0.24
35942 H 46.4251967111681 173.46391673983604 55.904717664424254 H 0.0 **** 0.06
35943 H 45.19177630192857 173.92188945569896 57.102322905996516 H 0.0 **** 0.06
35944 H 45.80186126081338 172.25056401434773 57.046556221419735 H 0.0 **** 0.06
35945 H 44.75941052046633 172.861885473489 55.738760025268846 H 0.0 **** 0.06
35946 C 153.90781386226678 106.5863194958132 126.9123158571616 C 0.0 **** -0.24
35947 H 154.47714855313762 105.86026702977114 127.4927434510354 H 0.0 **** 0.06
35948 H 153.44980536848018 106.08776199322637 126.058070577061 H 0.0 **** 0.06
35949 H 154.57623120419296 107.37199102727874 126.56020101296626 H 0.0 **** 0.06
35950 H 153.1312117470792 107.0223470947742 127.53906014303372 H 0.0 **** 0.06
35951 C 169.33732789869495 52.73132296756353 95.60824856951558 C 0.0 **** -0.24
35952 H 170.36755840249015 52.41599836042428 95.44419414280924 H 0.0 **** 0.06
35953 H 168.68723464203728 52.23745700499842 94.88455555094077 H 0.0 **** 0.06
35954 H 169.26384335771687 53.81174149773719 95.48495550297986 H 0.0 **** 0.06
35955 H 169.02985775855706 52.458094732042014 96.61746400623116 H 0.0 **** 0.06
35956 C 90.52194782271471 69.3933119176175 77.11567300482338 C 0.0 **** -0.24
35957 H 90.9837332882596 69.24325058687316 76.14044169233067 H 0.0 **** 0.06
35958 H 89.67456014174968 70.07246330730214 77.01568349975541 H 0.0 **** 0.06
35959 H 91.25252981273763 69.82272687187603 77.80195876285248 H 0.0 **** 0.06
35960 H 90.17713696158654 68.43593204187141 77.50544805446206 H 0.0 **** 0.06
35961 C 178.30019835021528 19.87826836701651 171.80462919106023 C 0.0 **** -0.24
35962 H 178.04413009310724 19.10907053789498 171.07578481864113 H 0.0 **** 0.06
35963 H 178.09851470731547 19.507084305321598 172.80974434803818 H 0.0 **** 0.06
35964 H 177.70190546899775 20.768674095690415 171.61755281007524 H 0.0 **** 0.06
35965 H 179.35855533990662 20.12536703663516 171.71482317094373 H 0.0 **** 0.06
35966 C 118.26254130458506 17.875158341398304 91.13906141307245 C 0.0 **** -0.24
35967 H 117.30381431471028 18.067214220600334 91.62147252168853 H 0.0 **** 0.06
35968 H 119.07035290341832 18.15040865568062 91.81714403997216 H 0.0 **** 0.06
35969 H 118.33480044795397 18.467148632399528 90.2274422816871 H 0.0 **** 0.06
35970 H 118.33972798207924 16.81595050518976 90.89298551437923 H 0.0 **** 0.06
35971 C 0.7539595430219208 17.137173331128324 29.477002179237502 C 0.0 **** -0.24
35972 H 1.8331449242538582 17.023593915573116 29.376438858612346 H 0.0 **** 0.06
35973 H 0.3157479411633233 17.332668276923386 28.49821635714835 H 0.0 **** 0.06
35974 H 0.5367015473050998 17.97015111724715 30.14568546490773 H 0.0 **** 0.06
35975 H 0.33007035905643534 16.22161564900155 29.88890440187822 H 0.0 **** 0.06
35976 C 0.6201165288864559 81.44254302751402 119.37690878590602 C 0.0 **** -0.24
35977 H 0.6694903580872449 81.92442960578855 120.35301477267892 H 0.0 **** 0.06
35978 H 1.4043701837021558 81.8425557783356 118.7334661765468 H 0.0 **** 0.06
35979 H -0.35395060790801836 81.63491971109146 118.9257671024419 H 0.0 **** 0.06
35980 H 0.7597109356874228 80.36779269617791 119.4956332743276 H 0.0 **** 0.06
35981 C 175.23056244302114 63.46501743017576 139.0304812563317 C 0.0 **** -0.24
35982 H 175.0597267275793 62.49391559554323 138.56731744646572 H 0.0 **** 0.06
35983 H 174.49514620997468 64.17922399453866 138.6592234926619 H 0.0 **** 0.06
35984 H 176.23298987879147 63.813777961325385 138.78327146905968 H 0.0 **** 0.06
35985 H 175.13438695573905 63.373152169295906 140.11211261713964 H 0.0 **** 0.06
35986 C 40.771906454352504 26.892700165219736 151.4645937199511 C 0.0 **** -0.24
35987 H 40.88522841301318 27.785554578173702 152.07799362979824 H 0.0 **** 0.06
35988 H 40.9745899156765 26.00849203298955 152.06959849449555 H 0.0 **** 0.06
35989 H 41.473750735291944 26.931950404637973 150.63181741392432 H 0.0 **** 0.06
35990 H 39.75349681876851 26.843664506481673 151.0795889487266 H 0.0 **** 0.06
35991 C 11.666653398864867 42.19444585378517 142.3101070036481 C 0.0 **** -0.24
35992 H 11.493128808527047 41.609146617111605 143.21205619083653 H 0.0 **** 0.06
35993 H 12.101411009048888 43.157129423924346 142.5790615120672 H 0.0 **** 0.06
35994 H 10.720884796935422 42.35495393966954 141.79287759524146 H 0.0 **** 0.06
35995 H 12.352187028740502 41.65607961099823 141.65509875014305 H 0.0 **** 0.06
35996 C 181.35210382944493 0.497047492559318 175.5558773809219 C 0.0 **** -0.24
35997 H 181.77475078952904 1.338041667786797 176.10571072882098 H 0.0 **** 0.06
35998 H 182.11775367346218 0.06285287552375962 174.91204918744265 H 0.0 **** 0.06
35999 H 180.51796099589816 0.8442600145871211 174.94727198525942 H 0.0 **** 0.06
36000 H 180.99911041852022 -0.2554769051214123 176.26081002959995 H 0.0 **** 0.06
36001 C 23.367180479637227 90.97733979709649 134.44933154611226 C 0.0 **** -0.24
36002 H 23.073805521762566 90.95424432915264 133.3987982772062 H 0.0 **** 0.06
36003 H 23.426761313062613 89.95854742397138 134.83187511380595 H 0.0 **** 0.06
36004 H 22.62796013182276 91.53804852623067 135.0197720037716 H 0.0 **** 0.06
36005 H 24.34065118609898 91.45887948233776 134.54233520320548 H 0.0 **** 0.06
36006 C 153.68317106395412 177.49326302203295 59.13365455126407 C 0.0 **** -0.24
36007 H 153.26369778709403 176.7046534444207 59.75780793843751 H 0.0 **** 0.06
36008 H 152.90519614154306 178.21734491404462 58.89207683711554 H 0.0 **** 0.06
36009 H 154.07316435491944 177.0581806487994 58.212959189767034 H 0.0 **** 0.06
36010 H 154.49002342667913 177.9910585226563 59.67061473945694 H 0.0 **** 0.06
36011 C 165.74169447840077 73.65152024497746 35.17010355547788 C 0.0 **** -0.24
36012 H 166.79605652259187 73.90724133211535 35.28102154344616 H 0.0 **** 0.06
36013 H 165.54234885160812 72.70882176395708 35.67880900649857 H 0.0 **** 0.06
36014 H 165.50184597093232 73.55263390526625 34.11205794422334 H 0.0 **** 0.06
36015 H 165.12934908077833 74.43867610007612 35.61061479267781 H 0.0 **** 0.06
36016 C 80.46959909636337 51.79268265076561 64.05177452025855 C 0.0 **** -0.24
36017 H 80.89918557878826 52.056164818733635 63.085725379343344 H 0.0 **** 0.06
36018 H 79.6070256394093 51.14329984571526 63.8994676343074 H 0.0 **** 0.06
36019 H 80.15552335460302 52.69934031882224 64.56883125077358 H 0.0 **** 0.06
36020 H 81.21610481798564 51.271673791323906 64.65116949567503 H 0.0 **** 0.06
36021 C 63.8196531401793 125.10227249590679 157.69268922629092 C 0.0 **** -0.24
36022 H 63.73627940627591 126.09361349258421 158.13730725843686 H 0.0 **** 0.06
36023 H 63.81447425055734 125.18924349145738 156.60583385107805 H 0.0 **** 0.06
36024 H 62.97781814816574 124.48860387858775 158.01339631728294 H 0.0 **** 0.06
36025 H 64.75099660321388 124.63704332632233 158.01587576910825 H 0.0 **** 0.06
36026 C 125.96065167465993 138.05505929611644 64.62436789026368 C 0.0 **** -0.24
36027 H 125.58109243900482 137.93051234710634 63.6104920630582 H 0.0 **** 0.06
36028 H 125.37288975488873 138.81358276689065 65.1415539671732 H 0.0 **** 0.06
36029 H 127.00423298335882 138.36676825029474 64.5860934465465 H 0.0 **** 0.06
36030 H 125.88343240113385 137.1083705394405 65.1596033139564 H 0.0 **** 0.06
36031 C 31.357728477203352 128.86071974784153 138.82174684146594 C 0.0 **** -0.24
36032 H 31.317060252013817 129.9308020466196 138.6166508892024 H 0.0 **** 0.06
36033 H 30.840254440036233 128.65141617565507 139.7579791839716 H 0.0 **** 0.06
36034 H 32.39838106743929 128.54627360572738 138.90355261054322 H 0.0 **** 0.06
36035 H 30.876194630300944 128.31708066787183 138.00969448032782 H 0.0 **** 0.06
36036 C 64.84731428531947 176.8277730995192 127.28559943342874 C 0.0 **** -0.24
36037 H 63.9864609227767 177.49503309947056 127.32375615552714 H 0.0 **** 0.06
36038 H 65.59096298391614 177.15045697633403 128.01481895569032 H 0.0 **** 0.06
36039 H 65.28230299910044 176.85300083899057 126.2860181381783 H 0.0 **** 0.06
36040 H 64.52827841438 175.81077034368786 127.51752164994271 H 0.0 **** 0.06
36041 C 94.62825420003055 112.59425767552308 13.716653193896036 C 0.0 **** -0.24
36042 H 94.62725790103308 112.31490357175709 14.770537281629743 H 0.0 **** 0.06
36043 H 94.85411499214634 111.71793917923786 13.109822792265788 H 0.0 **** 0.06
36044 H 95.38435223349812 113.36032256686944 13.545087736711366 H 0.0 **** 0.06
36045 H 93.6476426168738 112.98344062830814 13.443939243052228 H 0.0 **** 0.06
36046 C 81.37657530497926 136.82656402693402 23.062587375416143 C 0.0 **** -0.24
36047 H 81.93477883321026 137.60909723255156 22.549083767966238 H 0.0 **** 0.06
36048 H 82.02907590719711 136.3219308750438 23.77520698833021 H 0.0 **** 0.06
36049 H 81.00777291588383 136.10546218845616 22.332757728708287 H 0.0 **** 0.06
36050 H 80.53385792177205 137.2707358071014 23.592120376408843 H 0.0 **** 0.06
36051 C 176.23645198880754 9.005401466628001 161.27724220295397 C 0.0 **** -0.24
36052 H 176.3562374769573 8.085948704863199 160.70484950473565 H 0.0 **** 0.06
36053 H 176.84083735965277 9.794331381154144 160.8282630211762 H 0.0 **** 0.06
36054 H 176.5614299095931 8.839116511701157 162.30421300280454 H 0.0 **** 0.06
36055 H 175.1880231846931 9.303426277589693 161.27161932353886 H 0.0 **** 0.06
36056 C 164.08064871204778 171.7258153838843 176.68192845318578 C 0.0 **** -0.24
36057 H 164.71540854941952 171.25078936105564 175.93408315949225 H 0.0 **** 0.06
36058 H 163.06941716685685 171.32406193565168 176.60806150919427 H 0.0 **** 0.06
36059 H 164.05757405577367 172.80196703332643 176.50800729238748 H 0.0 **** 0.06
36060 H 164.47927140085704 171.52682166421584 177.6758287354487 H 0.0 **** 0.06
36061 C 68.39171021553852 73.57207132376806 102.88632646671387 C 0.0 **** -0.24
36062 H 67.45702798391926 73.10494809616375 102.57976599501298 H 0.0 **** 0.06
36063 H 69.13560791329701 72.80060266913111 103.08516734025828 H 0.0 **** 0.06
36064 H 68.22528839221116 74.15833691399207 103.7901775627462 H 0.0 **** 0.06
36065 H 68.74914904390232 74.22652265439751 102.09085093501476 H 0.0 **** 0.06
36066 C 58.33638205752908 33.54897362785974 45.887838025067765 C 0.0 **** -0.24
36067 H 58.76444029467484 33.03109562947398 45.0296749391575 H 0.0 **** 0.06
36068 H 58.44991650215843 32.93055719869422 46.77864352126696 H 0.0 **** 0.06
36069 H 57.27804986057424 33.7372378792774 45.70816363034305 H 0.0 **** 0.06
36070 H 58.85437756308022 34.49763000015916 46.03469560772976 H 0.0 **** 0.06
36071 C 120.18289525776562 85.71476838731961 173.13017501118867 C 0.0 **** -0.24
36072 H 119.9048691932738 86.76848059462391 173.1219625622254 H 0.0 **** 0.06
36073 H 119.36318865712606 85.12562567408054 173.54000703477652 H 0.0 **** 0.06
36074 H 121.07268424989557 85.57914173159666 173.74652910596947 H 0.0 **** 0.06
36075 H 120.3926705999401 85.38708616783642 172.11196480064936 H 0.0 **** 0.06
36076 C 23.35870942277478 85.8487772046186 59.86317003888095 C 0.0 **** -0.24
36077 H 22.29059299592572 85.85433111790393 60.07910243995829 H 0.0 **** 0.06
36078 H 23.668465788635217 86.8421174039445 59.53772170580386 H 0.0 **** 0.06
36079 H 23.5654953870457 85.12583629325023 59.07433459591478 H 0.0 **** 0.06
36080 H 23.908758579450193 85.57274135896536 60.763154769700336 H 0.0 **** 0.06
36081 C 136.3755509107034 121.30612204036505 65.83489241996952 C 0.0 **** -0.24
36082 H 135.42466739167094 120.80414459325219 65.65771306032616 H 0.0 **** 0.06
36083 H 136.43602030550437 121.61022537815693 66.88047360138403 H 0.0 **** 0.06
36084 H 136.44616517819946 122.18701417373946 65.19614907654159 H 0.0 **** 0.06
36085 H 137.19446746583225 120.62435506635337 65.60652031284967 H 0.0 **** 0.06
36086 C 38.32156826180666 55.10473921710326 77.47786393246288 C 0.0 **** -0.24
36087 H 38.41544154036755 54.032849909771784 77.65385114549912 H 0.0 **** 0.06
36088 H 39.31500434424726 55.55069061075952 77.42239784674905 H 0.0 **** 0.06
36089 H 37.763947375245536 55.55981158024832 78.29717979600922 H 0.0 **** 0.06
36090 H 37.793443469123616 55.27430451431542 76.54083131982314 H 0.0 **** 0.06
36091 C 83.70687413706082 180.8185909124415 124.33079686344252 C 0.0 **** -0.24
36092 H 84.37055426750106 181.38024309785612 123.67429565168032 H 0.0 **** 0.06
36093 H 83.2843054445409 179.9748642929328 123.78478178447892 H 0.0 **** 0.06
36094 H 82.9020829422056 181.46802253755243 124.67559980147581 H 0.0 **** 0.06
36095 H 84.27001260283953 180.45131019896684 125.18934758092047 H 0.0 **** 0.06
36096 C 106.05221554342928 116.64462833652657 154.95323382030858 C 0.0 **** -0.24
36097 H 106.48585217618218 115.70423618137433 155.29395106009707 H 0.0 **** 0.06
36098 H 106.6057860886974 117.00723227954181 154.0871187040952 H 0.0 **** 0.06
36099 H 106.10725407199133 117.38096446162045 155.75496085092357 H 0.0 **** 0.06
36100 H 105.00960451167673 116.4841587678146 154.6783790897245 H 0.0 **** 0.06
36101 C 87.96665156644882 83.69332291395897 54.760560600539975 C 0.0 **** -0.24
36102 H 87.5643747728764 84.23383966179956 53.90382646043449 H 0.0 **** 0.06
36103 H 87.20376840693326 83.02335506522205 55.15677231555992 H 0.0 **** 0.06
36104 H 88.26233110449094 84.40462270827558 55.532297341664616 H 0.0 **** 0.06
36105 H 88.83486481834241 83.11348968320551 54.448769781185604 H 0.0 **** 0.06
36106 C 10.699374562935077 95.12686772502587 65.54467871896955 C 0.0 **** -0.24
36107 H 9.847739419869072 95.07292558507874 66.22280790327196 H 0.0 **** 0.06
36108 H 11.534455185423582 95.61199033395707 66.05029891015164 H 0.0 **** 0.06
36109 H 10.42521335458909 95.70297318710158 64.66107898808562 H 0.0 **** 0.06
36110 H 10.991169962638935 94.11993816084515 65.24645454501993 H 0.0 **** 0.06
36111 C 172.23956080986267 9.936926422327076 150.18615126317314 C 0.0 **** -0.24
36112 H 172.1616029828316 9.041697232877311 149.56915965788875 H 0.0 **** 0.06
36113 H 172.5931197041071 9.663096909214232 151.1802316780574 H 0.0 **** 0.06
36114 H 171.26023696150173 10.409130254812169 150.26487043146355 H 0.0 **** 0.06
36115 H 172.94314565320173 10.633146699330041 149.7282035683938 H 0.0 **** 0.06
36116 C 23.71410785526163 129.83552447358892 35.31876743620512 C 0.0 **** -0.24
36117 H 23.707676281745478 130.92524166454592 35.335868160784 H 0.0 **** 0.06
36118 H 24.031164895585448 129.4887667147425 34.33455542340752 H 0.0 **** 0.06
36119 H 22.71168583887612 129.4628737590886 35.53027610736956 H 0.0 **** 0.06
36120 H 24.406551605123184 129.46513976297626 36.0751285923626 H 0.0 **** 0.06
36121 C 166.98369417590936 151.46995802481592 84.7467457493766 C 0.0 **** -0.24
36122 H 166.95411453175478 151.26710535620532 85.81715604235063 H 0.0 **** 0.06
36123 H 167.59520705438356 150.71594108697101 84.2508416984299 H 0.0 **** 0.06
36124 H 167.4141800922647 152.45732444446713 84.57564102523037 H 0.0 **** 0.06
36125 H 165.97163337498785 151.4407123461154 84.34448717597098 H 0.0 **** 0.06
36126 C 125.29657121819305 23.936193915665186 33.11945200220828 C 0.0 **** -0.24
36127 H 125.72444518144736 24.733060362019927 33.72687777971191 H 0.0 **** 0.06
36128 H 124.67718452785537 23.294122342723327 33.74525674178042 H 0.0 **** 0.06
36129 H 126.09956003162459 23.34700081083085 32.67585778549726 H 0.0 **** 0.06
36130 H 124.68577307218472 24.37149950767656 32.32788769322549 H 0.0 **** 0.06
36131 C 8.074715320082902 7.124349918099284 8.850558142954469 C 0.0 **** -0.24
36132 H 7.336222088853418 7.544781013506622 9.531800213207475 H 0.0 **** 0.06
36133 H 7.6131760519393765 6.944207315980435 7.8790945370987515 H 0.0 **** 0.06
36134 H 8.448907125438836 6.184077391809495 9.255412969752769 H 0.0 **** 0.06
36135 H 8.902676432353758 7.824254029352801 8.735219470643358 H 0.0 **** 0.06
36136 C 158.9896443530188 165.3403891074765 39.94210787853682 C 0.0 **** -0.24
36137 H 158.29593663153986 164.55150872200224 40.23366011956287 H 0.0 **** 0.06
36138 H 159.53703180677087 165.0311798722259 39.051063539150945 H 0.0 **** 0.06
36139 H 159.69205373176396 165.52380979898095 40.75536877489452 H 0.0 **** 0.06
36140 H 158.43332441029185 166.25299302984305 39.72916526876833 H 0.0 **** 0.06
36141 C 140.8100764786514 86.64838082902475 0.6009462820941707 C 0.0 **** -0.24
36142 H 141.07376896565256 85.85642017325699 1.301746502674355 H 0.0 **** 0.06
36143 H 141.71912753134268 87.12798341026917 0.23676784570098164 H 0.0 **** 0.06
36144 H 140.18735258197472 87.38645285392806 1.10560059523538 H 0.0 **** 0.06
36145 H 140.26168909296518 86.22316256163901 -0.2388840773758787 H 0.0 **** 0.06
36146 C 141.58834313053597 173.0536483882507 71.26352032700667 C 0.0 **** -0.24
36147 H 141.86333237930643 173.6247642506008 70.37668214993398 H 0.0 **** 0.06
36148 H 140.51347487792378 173.1353333047513 71.42788638222525 H 0.0 **** 0.06
36149 H 142.11990345080034 173.44873291664538 72.12919821351493 H 0.0 **** 0.06
36150 H 141.8557026579408 172.00719780851253 71.11930378281325 H 0.0 **** 0.06
36151 C 52.3248769037549 52.26459572805774 175.29237670913767 C 0.0 **** -0.24
36152 H 52.65777382055498 52.23906080733343 176.32993874173644 H 0.0 **** 0.06
36153 H 51.55905365529222 51.503181062192425 175.13875097934408 H 0.0 **** 0.06
36154 H 53.1712581117506 52.06653243599516 174.63398232101034 H 0.0 **** 0.06
36155 H 51.91096191477561 53.24720365479317 175.0669029921225 H 0.0 **** 0.06
36156 C 176.11779562792697 126.17910311438008 149.44934182922822 C 0.0 **** -0.24
36157 H 176.0093443534144 126.26230157068908 148.3682018348531 H 0.0 **** 0.06
36158 H 176.5280188304992 125.20042045742655 149.69839713432415 H 0.0 **** 0.06
36159 H 175.141553771565 126.29513357327578 149.9216395850508 H 0.0 **** 0.06
36160 H 176.79024990536084 126.95799125396765 149.80834303413948 H 0.0 **** 0.06
36161 C 166.378748846874 34.57493198156578 148.65495002934364 C 0.0 **** -0.24
36162 H 165.9857935504935 35.57572929454898 148.83473390587943 H 0.0 **** 0.06
36163 H 166.03237835233398 33.901931907009214 149.4397409318082 H 0.0 **** 0.06
36164 H 167.46847926643625 34.60654920418801 148.6578374980644 H 0.0 **** 0.06
36165 H 166.0293300804143 34.21534989062525 147.6874886137004 H 0.0 **** 0.06
36166 C 92.40532439919956 14.460442566685856 69.12142537605398 C 0.0 **** -0.24
36167 H 91.69425808531373 15.258623908448271 69.33550390586292 H 0.0 **** 0.06
36168 H 91.86612517032135 13.574150312285497 68.7871356932162 H 0.0 **** 0.06
36169 H 92.96831461961172 14.225677312925995 70.02461674214467 H 0.0 **** 0.06
36170 H 93.09181349886676 14.786198917510092 68.34020206029696 H 0.0 **** 0.06
36171 C 108.52293261876379 65.33655305106772 179.25127779013235 C 0.0 **** -0.24
36172 H 107.63421153487504 64.78860819274361 178.9405341753344 H 0.0 **** 0.06
36173 H 108.22847342906466 66.17978871085036 179.87759864924013 H 0.0 **** 0.06
36174 H 109.04970641554927 65.70474127016067 178.371031142733 H 0.0 **** 0.06
36175 H 109.1787204442475 64.67473222103422 179.8176406580259 H 0.0 **** 0.06
36176 C 50.621001470607595 131.25489004277392 17.069224965219206 C 0.0 **** -0.24
36177 H 50.27918829073093 130.44254230115746 16.427528564816754 H 0.0 **** 0.06
36178 H 49.84847171278501 132.0209162129408 17.129399887775605 H 0.0 **** 0.06
36179 H 51.531478063998804 131.68668581660614 16.653496508950468 H 0.0 **** 0.06
36180 H 50.82615179961218 130.86601160747847 18.06734835659435 H 0.0 **** 0.06
36181 C 7.858501090950654 115.15093655896389 5.745533642515078 C 0.0 **** -0.24
36182 H 8.246744260285453 116.16844469232039 5.699102985160472 H 0.0 **** 0.06
36183 H 8.255966891479005 114.65130735017341 6.628772537094598 H 0.0 **** 0.06
36184 H 8.161929081907516 114.60593588003174 4.851835108438259 H 0.0 **** 0.06
36185 H 6.770250829520251 115.17961560726057 5.801535852284161 H 0.0 **** 0.06
36186 C 161.00549455465784 126.63104402688005 124.8499776048924 C 0.0 **** -0.24
36187 H 161.5834942051427 127.28451316856886 124.19597617832729 H 0.0 **** 0.06
36188 H 161.06829217824094 125.60480231326697 124.4862375884431 H 0.0 **** 0.06
36189 H 159.96412121018892 126.95137887483143 124.85567683347348 H 0.0 **** 0.06
36190 H 161.40773613970393 126.68310089789865 125.861735063045 H 0.0 **** 0.06
36191 C 180.9848856077125 59.2571335136264 89.33740500565101 C 0.0 **** -0.24
36192 H 180.0687075447031 58.79515033091684 88.96813046621135 H 0.0 **** 0.06
36193 H 180.88330318210336 59.46417724206776 90.40308004383685 H 0.0 **** 0.06
36194 H 181.16419098513728 60.18852353635816 88.80077612252681 H 0.0 **** 0.06
36195 H 181.82291768937515 58.57850931677274 89.17794404934806 H 0.0 **** 0.06
36196 C 165.4828545091034 74.26487238541738 87.0286983487269 C 0.0 **** -0.24
36197 H 166.42667955077854 73.72461930885825 86.96332068581488 H 0.0 **** 0.06
36198 H 165.67571048143844 75.29678029864282 87.32159080107935 H 0.0 **** 0.06
36199 H 164.8420856067969 73.78914131273088 87.77053020415262 H 0.0 **** 0.06
36200 H 164.98812932265014 74.24914065213898 86.0572175808678 H 0.0 **** 0.06
36201 C 165.65053055811896 171.8687244641285 113.65257030490817 C 0.0 **** -0.24
36202 H 164.6319746455683 172.2558943809113 113.67987729625308 H 0.0 **** 0.06
36203 H 166.02457931862872 171.90251066472143 112.62989423135046 H 0.0 **** 0.06
36204 H 165.65586157836862 170.8387311123835 114.0083997930797 H 0.0 **** 0.06
36205 H 166.287209528606 172.47814560093775 114.2940117536986 H 0.0 **** 0.06
36206 C 80.00061192606012 18.558248927281284 138.0013232178681 C 0.0 **** -0.24
36207 H 79.515126222287 19.530986651780125 138.08713896868426 H 0.0 **** 0.06
36208 H 79.48682673622491 17.83900128040483 138.63906373093056 H 0.0 **** 0.06
36209 H 81.04180850860172 18.64453518045903 138.31417262984337 H 0.0 **** 0.06
36210 H 79.9590353447716 18.222187590174315 136.9651955559052 H 0.0 **** 0.06
36211 C 128.30783518599827 128.78823120443639 24.492099525637343 C 0.0 **** -0.24
36212 H 128.00384218753373 129.49191297829475 25.267134741052956 H 0.0 **** 0.06
36213 H 127.62072170095966 128.8576088271136 23.64830915617526 H 0.0 **** 0.06
36214 H 128.28862848505315 127.77478958862618 24.89416243309985 H 0.0 **** 0.06
36215 H 129.31766431855766 129.0279331298787 24.159342152803845 H 0.0 **** 0.06
36216 C 176.19606885189296 134.95176169504674 37.752747034479626 C 0.0 **** -0.24
36217 H 176.7900663442885 134.31908694688224 38.41109949831517 H 0.0 **** 0.06
36218 H 176.23126909859707 135.9814667779877 38.110348461146714 H 0.0 **** 0.06
36219 H 175.16297936561958 134.60368467324895 37.74944978100547 H 0.0 **** 0.06
36220 H 176.59882814737423 134.90406582748682 36.740459800114536 H 0.0 **** 0.06
36221 C 52.81030746162739 70.03162880786863 85.81644546951885 C 0.0 **** -0.24
36222 H 52.09035844701771 69.22045717272346 85.70883806708189 H 0.0 **** 0.06
36223 H 53.67039289492678 69.67942411780865 86.3869875774176 H 0.0 **** 0.06
36224 H 52.34322837298751 70.86451646412138 86.34100110391738 H 0.0 **** 0.06
36225 H 53.13751740105769 70.35942320906008 84.83024730251584 H 0.0 **** 0.06
36226 C 150.23446659159058 166.1306642942986 81.29608540074246 C 0.0 **** -0.24
36227 H 150.2305472372069 165.6438475157133 80.32071653097667 H 0.0 **** 0.06
36228 H 151.225005734693 166.54366763774138 81.49104911081965 H 0.0 **** 0.06
36229 H 149.9866952803697 165.4010521284826 82.06670905420827 H 0.0 **** 0.06
36230 H 149.49776177956335 166.9333768215327 81.30389296505874 H 0.0 **** 0.06
36231 C 7.00307108912466 96.99486280012546 105.09577614303163 C 0.0 **** -0.24
36232 H 7.5675582122023926 96.53225477786602 104.28615433640527 H 0.0 **** 0.06
36233 H 7.652838906549334 97.12763042799348 105.9606650940703 H 0.0 **** 0.06
36234 H 6.163708353450758 96.35446345084618 105.36579507017694 H 0.0 **** 0.06
36235 H 6.629133105667307 97.96508702141854 104.76846785877376 H 0.0 **** 0.06
36236 C 69.51549725189189 47.33603691812368 159.04830619475126 C 0.0 **** -0.24
36237 H 69.92494740819924 47.46679470431798 158.04670581020514 H 0.0 **** 0.06
36238 H 70.1704861304691 47.81925928105932 159.7734538254669 H 0.0 **** 0.06
36239 H 69.44395639948155 46.27239465761704 159.27585490276581 H 0.0 **** 0.06
36240 H 68.52417374227511 47.78589993243514 159.09651733541648 H 0.0 **** 0.06
36241 C 168.79543317243903 92.19175516101676 43.935346449080555 C 0.0 **** -0.24
36242 H 169.61567145029167 92.58729521772752 43.33619404995565 H 0.0 **** 0.06
36243 H 168.35897710380834 92.99638852175185 44.52848021018491 H 0.0 **** 0.06
36244 H 169.1738313515384 91.41436979504884 44.59891948020612 H 0.0 **** 0.06
36245 H 168.0351318969232 91.77051031333015 43.277496073859936 H 0.0 **** 0.06
36246 C 180.1100356443101 53.053851566779485 57.037439325191116 C 0.0 **** -0.24
36247 H 180.97084754664093 53.03927961288019 57.705947283589765 H 0.0 **** 0.06
36248 H 179.99000992311284 54.05415022335592 56.620665043342086 H 0.0 **** 0.06
36249 H 179.21351635612677 52.781764267093706 57.593825892031816 H 0.0 **** 0.06
36250 H 180.2661535104078 52.3394553364235 56.228790690345335 H 0.0 **** 0.06
36251 C 41.187484273498114 100.871646697186 80.42699039375718 C 0.0 **** -0.24
36252 H 40.10765897621303 100.79807141516169 80.56083134140832 H 0.0 **** 0.06
36253 H 41.43022307424462 100.75782832398217 79.37052382391525 H 0.0 **** 0.06
36254 H 41.67782061107357 100.08455740922425 80.99969632862523 H 0.0 **** 0.06
36255 H 41.53117392975656 101.84436518564807 80.77618873234196 H 0.0 **** 0.06
36256 C 78.01177846507602 157.90939562194077 156.7971440936207 C 0.0 **** -0.24
36257 H 78.8418073790245 158.59818581839318 156.95430461647038 H 0.0 **** 0.06
36258 H 77.2957763386586 158.01126329289113 157.61285930363184 H 0.0 **** 0.06
36259 H 78.3890409940549 156.88657361318337 156.7710191562099 H 0.0 **** 0.06
36260 H 77.52163606991078 158.13959269612818 155.85129627462604 H 0.0 **** 0.06
36261 C 52.27708821096144 126.13099361403441 47.563004638620725 C 0.0 **** -0.24
36262 H 52.56891082170591 126.13032993242963 46.51369132026588 H 0.0 **** 0.06
36263 H 51.581265930673055 125.31257701271674 47.748047841589255 H 0.0 **** 0.06
36264 H 51.79657344762546 127.07872489658659 47.80573358033479 H 0.0 **** 0.06
36265 H 53.16292103664313 126.0030901016559 48.18647019570591 H 0.0 **** 0.06
36266 C 63.3149081541134 122.37155067872716 130.98288118855692 C 0.0 **** -0.24
36267 H 63.59494685540949 122.75979293131478 131.96272284439323 H 0.0 **** 0.06
36268 H 64.21235018186957 122.20150040036039 130.38873048890804 H 0.0 **** 0.06
36269 H 62.67492304751457 123.09366267459667 130.47630080913802 H 0.0 **** 0.06
36270 H 62.77593115350946 121.431243198572 131.10544561328982 H 0.0 **** 0.06
36271 C 130.76619999409172 163.66622144981775 24.361444699162803 C 0.0 **** -0.24
36272 H 130.0933261159493 164.13164527982067 25.080778233831836 H 0.0 **** 0.06
36273 H 130.54405049052372 162.60113949520397 24.292550570327307 H 0.0 **** 0.06
36274 H 131.79727050447212 163.8016288537996 24.68862784419008 H 0.0 **** 0.06
36275 H 130.6306791486208 164.12997583105286 23.3850373530708 H 0.0 **** 0.06
36276 C 99.13584242931354 18.16475821378419 114.79904451438468 C 0.0 **** -0.24
36277 H 98.58109087135578 17.286264944171705 115.13233374116398 H 0.0 **** 0.06
36278 H 98.43565687472754 18.95776338120929 114.53715456239264 H 0.0 **** 0.06
36279 H 99.73487726622774 17.90447808479162 113.92621527009975 H 0.0 **** 0.06
36280 H 99.79011376219707 18.50720718376651 115.60104270643619 H 0.0 **** 0.06
36281 C 23.02798992748089 177.03109654224647 99.73878758022904 C 0.0 **** -0.24
36282 H 22.223426244260367 176.66343051515352 100.37640294933705 H 0.0 **** 0.06
36283 H 23.78477098310063 176.25436930541744 99.62729495568449 H 0.0 **** 0.06
36284 H 23.4763203086452 177.91488866696685 100.19207633964918 H 0.0 **** 0.06
36285 H 22.62424388973733 177.29003814325296 98.75950734916198 H 0.0 **** 0.06
36286 C 41.22699743423087 28.452464833984067 5.0968766964353165 C 0.0 **** -0.24
36287 H 40.4084150821392 28.923983542509276 4.552446332561715 H 0.0 **** 0.06
36288 H 40.88005932936511 27.51586315718393 5.53364507886468 H 0.0 **** 0.06
36289 H 41.5678129253635 29.1194535041775 5.888549779207295 H 0.0 **** 0.06
36290 H 42.05009873408919 28.25118424710095 4.411846975688832 H 0.0 **** 0.06
36291 C 150.53650805546178 18.470299365782807 112.11014683711271 C 0.0 **** -0.24
36292 H 151.1555049961579 18.640477776721696 112.99091494130086 H 0.0 **** 0.06
36293 H 149.6158912057872 17.967479376880902 112.40444941997846 H 0.0 **** 0.06
36294 H 151.08112037805898 17.847512134668364 111.39925803515517 H 0.0 **** 0.06
36295 H 150.29679846462025 19.42693436427129 111.64463509197567 H 0.0 **** 0.06
36296 C 99.06544511960739 93.40511792273124 172.98660272518663 C 0.0 **** -0.24
36297 H 99.61093319152458 92.53728384975021 172.6150893828296 H 0.0 **** 0.06
36298 H 99.75129543859843 94.24672014377875 173.09194714230878 H 0.0 **** 0.06
36299 H 98.62464495145433 93.17089073326174 173.95551252233844 H 0.0 **** 0.06
36300 H 98.27586458123626 93.66541185664273 172.2816133585673 H 0.0 **** 0.06
36301 C 98.35221121370743 153.08747840101023 4.820501582781731 C 0.0 **** -0.24
36302 H 98.12842231218711 154.12988198051215 4.595771420837707 H 0.0 **** 0.06
36303 H 97.98049234036687 152.84222551079955 5.815925858776296 H 0.0 **** 0.06
36304 H 99.43084394550901 152.93067970671314 4.786782315247649 H 0.0 **** 0.06
36305 H 97.86984870045593 152.44502908599418 4.083385131456964 H 0.0 **** 0.06
36306 C 97.44234675810422 150.81446221378098 25.934825630019077 C 0.0 **** -0.24
36307 H 98.35361748564286 151.40789814698076 25.856092953949144 H 0.0 **** 0.06
36308 H 97.22462725301848 150.35419402474247 24.97068570651618 H 0.0 **** 0.06
36309 H 96.6126843871374 151.45915077154268 26.22516402018414 H 0.0 **** 0.06
36310 H 97.57920292068398 150.03758143303168 26.686137797436345 H 0.0 **** 0.06
36311 C 164.36404173649552 33.834590531688264 104.35513204941519 C 0.0 **** -0.24
36312 H 164.02077726914948 34.857536382731325 104.51509985063448 H 0.0 **** 0.06
36313 H 163.78002494039396 33.15495003490361 104.97545336324946 H 0.0 **** 0.06
36314 H 165.41718275329262 33.75899956136743 104.62483995406323 H 0.0 **** 0.06
36315 H 164.2377030543125 33.56956380857645 103.30587482980691 H 0.0 **** 0.06
36316 C 103.35309944658901 138.065138729519 71.19215966886267 C 0.0 **** -0.24
36317 H 102.84761920605082 139.01097683723555 71.38828048758081 H 0.0 **** 0.06
36318 H 103.55569701764442 137.55905255911802 72.13654115871373 H 0.0 **** 0.06
36319 H 104.29256784438628 138.257544130758 70.67370170318081 H 0.0 **** 0.06
36320 H 102.71687428885694 137.43470038861693 70.57149921885456 H 0.0 **** 0.06
36321 C 148.7290218883436 96.62140586502265 141.9758845838819 C 0.0 **** -0.24
36322 H 148.1610261607176 95.74320707717804 142.2834250102283 H 0.0 **** 0.06
36323 H 149.77220135276582 96.50015279027774 142.2703479907188 H 0.0 **** 0.06
36324 H 148.31630357622416 97.50773656870619 142.45701328236424 H 0.0 **** 0.06
36325 H 148.66726623650615 96.73258577534786 140.89360522279623 H 0.0 **** 0.06
36326 C 70.52651819173767 131.26721281225298 170.35087074177147 C 0.0 **** -0.24
36327 H 70.5798390647224 130.46374163146527 169.616572235001 H 0.0 **** 0.06
36328 H 71.45216481343257 131.84294423521277 170.3255914225213 H 0.0 **** 0.06
36329 H 70.38975947492006 130.84152367013093 171.34496187019025 H 0.0 **** 0.06
36330 H 69.68584411180564 131.9192055198564 170.1155944338803 H 0.0 **** 0.06
36331 C 104.32463326683722 68.02469165150092 23.366301782923287 C 0.0 **** -0.24
36332 H 105.02676464000587 68.7522377892954 22.95871311309024 H 0.0 **** 0.06
36333 H 104.8281286334119 67.4192606799221 24.12045835494284 H 0.0 **** 0.06
36334 H 103.96200412177029 67.38127939804434 22.564791250591853 H 0.0 **** 0.06
36335 H 103.48360090718273 68.54721988810809 23.822033254519866 H 0.0 **** 0.06
36336 C 67.12495087832124 25.563250914069727 79.84250301194423 C 0.0 **** -0.24
36337 H 67.30332884154865 26.563039816483297 80.23926091501363 H 0.0 **** 0.06
36338 H 68.0103523135289 25.22195893429864 79.30630207760974 H 0.0 **** 0.06
36339 H 66.27478963119643 25.59020136916928 79.15971759215044 H 0.0 **** 0.06
36340 H 66.9092444659372 24.879525691949425 80.66343779838795 H 0.0 **** 0.06
36341 C 61.92030604895024 58.122891207326674 45.498838065702614 C 0.0 **** -0.24
36342 H 61.2777138390004 57.377503762623064 45.031021697507896 H 0.0 **** 0.06
36343 H 62.86998419611696 58.169995623190246 44.96459842934887 H 0.0 **** 0.06
36344 H 62.10007927506334 57.84740694700602 46.53771455364402 H 0.0 **** 0.06
36345 H 61.4328327744896 59.09804756295307 45.46037639814929 H 0.0 **** 0.06
36346 C 15.697118703699644 171.36049688079322 72.61706730770504 C 0.0 **** -0.24
36347 H 16.76567135051613 171.18867691491982 72.4879607590907 H 0.0 **** 0.06
36348 H 15.332079169256247 170.76666033614742 73.45473051373875 H 0.0 **** 0.06
36349 H 15.170935132356739 171.06977230322326 71.70805222395137 H 0.0 **** 0.06
36350 H 15.520341517416703 172.4178080989131 72.81661479398167 H 0.0 **** 0.06
36351 C 145.57332804632614 7.306197724099206 148.88646943524148 C 0.0 **** -0.24
36352 H 145.31930061500094 7.897450824067363 148.00751086741963 H 0.0 **** 0.06
36353 H 146.60815773398164 6.971797518267152 148.81307064338557 H 0.0 **** 0.06
36354 H 144.9135550602455 6.439580755527572 148.94404580073 H 0.0 **** 0.06
36355 H 145.4511169733735 7.916213374900309 149.78198534516326 H 0.0 **** 0.06
36356 C 154.9924297272097 99.69780905619585 151.46670497066253 C 0.0 **** -0.24
36357 H 154.05612295440358 100.08434722151391 151.0636525574057 H 0.0 **** 0.06
36358 H 155.80383188792678 99.91504880554241 150.77201094470627 H 0.0 **** 0.06
36359 H 154.9096820955161 98.6196087317041 151.60477473908747 H 0.0 **** 0.06
36360 H 155.197644306099 100.17237214155448 152.42657695799602 H 0.0 **** 0.06
36361 C 15.236772155588369 13.021686958448697 113.40366569900561 C 0.0 **** -0.24
36362 H 15.626146184159154 12.812246867330401 114.40000754752776 H 0.0 **** 0.06
36363 H 14.253709943900247 13.485099371345342 113.48847721359681 H 0.0 **** 0.06
36364 H 15.152252279783937 12.090183615255683 112.8431772536594 H 0.0 **** 0.06
36365 H 15.914570383140841 13.697961036062168 112.88350295646632 H 0.0 **** 0.06
36366 C 87.70249379943981 162.00569414733678 7.091425176726915 C 0.0 **** -0.24
36367 H 87.63569602936884 162.0269132385455 6.004254012446609 H 0.0 **** 0.06
36368 H 88.68548109647254 162.36264989743097 7.402076075740638 H 0.0 **** 0.06
36369 H 87.55826255382182 160.985102650006 7.4449979271077495 H 0.0 **** 0.06
36370 H 86.93150407799861 162.64969628929717 7.515113113744121 H 0.0 **** 0.06
36371 C 78.27727440075958 178.70358644347925 125.19781084553807 C 0.0 **** -0.24
36372 H 78.41138256299203 177.86266358334075 124.51787916436552 H 0.0 **** 0.06
36373 H 77.2711235327699 179.10855321014432 125.0816137935073 H 0.0 **** 0.06
36374 H 79.01004285511826 179.47727258436527 124.965622249202 H 0.0 **** 0.06
36375 H 78.41814586575134 178.36693358064042 126.22461532002109 H 0.0 **** 0.06
36376 C 85.08953978398115 8.945530724685 137.77769487182098 C 0.0 **** -0.24
36377 H 84.10222262544868 9.29002090336877 138.08419069778836 H 0.0 **** 0.06
36378 H 85.63312634911306 9.767917834010461 137.31215597709206 H 0.0 **** 0.06
36379 H 84.98324078930835 8.129503509700186 137.06324721116033 H 0.0 **** 0.06
36380 H 85.63956937205457 8.59468065166081 138.65118560124324 H 0.0 **** 0.06
36381 C 139.06222069076819 173.690486389221 130.86242210828544 C 0.0 **** -0.24
36382 H 138.86760138476018 172.8989841912736 131.58557488594147 H 0.0 **** 0.06
36383 H 139.37176753585203 173.24855152225936 129.9145098096667 H 0.0 **** 0.06
36384 H 139.85448283291652 174.3391192353108 131.23778129877036 H 0.0 **** 0.06
36385 H 138.15503100954396 174.27529060804034 130.71182243876336 H 0.0 **** 0.06
36386 C 63.71024772304092 168.76479860119292 179.03897150431106 C 0.0 **** -0.24
36387 H 64.11338721643689 167.77956855832764 178.80661476960074 H 0.0 **** 0.06
36388 H 64.53133332429877 169.4696215493901 179.1760497702316 H 0.0 **** 0.06
36389 H 63.121913877838125 168.7109540284663 179.95521133230886 H 0.0 **** 0.06
36390 H 63.07592838640373 169.10059354822812 178.21839420451545 H 0.0 **** 0.06
36391 C 63.60387345524484 125.02725269327651 168.1735171262878 C 0.0 **** -0.24
36392 H 63.397230390185584 126.09352637528563 168.08209809447916 H 0.0 **** 0.06
36393 H 62.713260360857575 124.46084588820402 167.89763479565914 H 0.0 **** 0.06
36394 H 63.87645295402328 124.79724277384626 169.2031122877353 H 0.0 **** 0.06
36395 H 64.42612427621314 124.75878383784642 167.51013305354533 H 0.0 **** 0.06
36396 C 176.99753681589146 168.8624749961491 155.50496531058417 C 0.0 **** -0.24
36397 H 176.29478900081858 169.4798298624704 156.06624678010144 H 0.0 **** 0.06
36398 H 176.60870792160745 167.84713648251068 155.4301378626655 H 0.0 **** 0.06
36399 H 177.9585297813436 168.84725443176765 156.01984319532147 H 0.0 **** 0.06
36400 H 177.12713905917656 169.27649800853612 154.50546816459791 H 0.0 **** 0.06
36401 C 49.03972648646743 137.68359050701736 182.21750263194647 C 0.0 **** -0.24
36402 H 49.961072402560774 137.21288089551655 182.55930594867905 H 0.0 **** 0.06
36403 H 49.25725602153659 138.69173539016526 181.86116540096486 H 0.0 **** 0.06
36404 H 48.32948954479184 137.73536961858377 183.04302718398623 H 0.0 **** 0.06
36405 H 48.6111275192867 137.09645056237895 181.40567816888733 H 0.0 **** 0.06
36406 C 182.29155376270464 108.1835061185197 67.56965012875014 C 0.0 **** -0.24
36407 H 182.58271040630888 109.23352793086427 67.54038637139041 H 0.0 **** 0.06
36408 H 183.183310151039 107.55889858856968 67.52464653997652 H 0.0 **** 0.06
36409 H 181.6469971638416 107.96225659638277 66.71897345580999 H 0.0 **** 0.06
36410 H 181.7525863158039 107.9821717151005 68.49537898201453 H 0.0 **** 0.06
36411 C 164.020933606702 82.14917901258258 136.95943673882755 C 0.0 **** -0.24
36412 H 163.03981034958437 81.6876949492576 136.8453929376609 H 0.0 **** 0.06
36413 H 163.97738910892554 82.90206609314481 137.74658938593387 H 0.0 **** 0.06
36414 H 164.3113018523984 82.61948067256725 136.02092890771917 H 0.0 **** 0.06
36415 H 164.75226043254793 81.38631379819151 137.22573937162355 H 0.0 **** 0.06
36416 C 113.2336263952311 150.91945942373738 73.9544466533149 C 0.0 **** -0.24
36417 H 113.4376760044817 151.98911319594276 73.9785896687091 H 0.0 **** 0.06
36418 H 112.87124278579073 150.64137685720863 72.96490708232443 H 0.0 **** 0.06
36419 H 112.47594820123275 150.67763233853594 74.69985578971693 H 0.0 **** 0.06
36420 H 114.14828604546894 150.369419826521 74.17414533770273 H 0.0 **** 0.06
36421 C 95.35149950514652 154.34768431298096 169.18740135495526 C 0.0 **** -0.24
36422 H 95.91878497013668 154.87693247470145 168.42229160586191 H 0.0 **** 0.06
36423 H 94.40200897495326 154.85837195134144 169.35505066188253 H 0.0 **** 0.06
36424 H 95.92294942349044 154.32980615608298 170.11570612089264 H 0.0 **** 0.06
36425 H 95.1613611679506 153.3260363274061 168.85757384794113 H 0.0 **** 0.06
36426 C 181.05639174651307 129.79994201257284 2.3416893878620115 C 0.0 **** -0.24
36427 H 182.0594994340157 129.44929543130831 2.096289025990096 H 0.0 **** 0.06
36428 H 180.3512742246465 129.42748240120585 1.5985390103219004 H 0.0 **** 0.06
36429 H 181.0428173572685 130.8899815166933 2.342682006936066 H 0.0 **** 0.06
36430 H 180.77460222883585 129.43169194908114 3.3271572329486787 H 0.0 **** 0.06
36431 C 38.17787200828677 183.30669138338334 60.93186525640385 C 0.0 **** -0.24
36432 H 37.1680346371062 182.90758119824713 61.02788562672595 H 0.0 **** 0.06
36433 H 38.21453430986149 184.30801690745545 61.36195531123701 H 0.0 **** 0.06
36434 H 38.45084186748066 183.3534812972144 59.87755480527153 H 0.0 **** 0.06
36435 H 38.87700406995124 182.65859078683937 61.459892082167414 H 0.0 **** 0.06
36436 C 12.57920964056914 180.40561880845974 14.65400641665321 C 0.0 **** -0.24
36437 H 12.955819098477917 179.44806707238124 15.014399764335202 H 0.0 **** 0.06
36438 H 13.3908997981028 181.13310317430086 14.643958996388236 H 0.0 **** 0.06
36439 H 11.78518360996248 180.75497939999798 15.31438147368904 H 0.0 **** 0.06
36440 H 12.185820518319161 180.28426219819133 13.644265381277428 H 0.0 **** 0.06
36441 C 135.68433309851542 25.819864416053292 148.81560220983965 C 0.0 **** -0.24
36442 H 136.02658654027096 25.665376056710357 149.83933181989318 H 0.0 **** 0.06
36443 H 136.54579375770777 25.89199784827038 148.15203258087735 H 0.0 **** 0.06
36444 H 135.1047611851336 26.740844858418455 148.76214421555127 H 0.0 **** 0.06
36445 H 135.05988398571583 24.979827883508747 148.5117135972059 H 0.0 **** 0.06
36446 C 99.72602829151451 19.85151774064674 109.5101298420846 C 0.0 **** -0.24
36447 H 98.6854718877279 20.16019789876122 109.40574442935021 H 0.0 **** 0.06
36448 H 100.28730629730093 20.163045723518586 108.62919131973838 H 0.0 **** 0.06
36449 H 99.77490834580631 18.767012821817936 109.60970490564297 H 0.0 **** 0.06
36450 H 100.15483449618544 20.31783229867365 110.39742593009039 H 0.0 **** 0.06
36451 C 114.97618025774317 179.90706607793973 25.089945389918782 C 0.0 **** -0.24
36452 H 115.97640226781284 180.00645722371544 25.511290483415934 H 0.0 **** 0.06
36453 H 114.23705606961015 179.99285121079006 25.887242536203644 H 0.0 **** 0.06
36454 H 114.879639737576 178.9343884026357 24.60800719794858 H 0.0 **** 0.06
36455 H 114.8119350553993 180.69566057002822 24.355411108145518 H 0.0 **** 0.06
36456 C 4.335008959185082 171.09398554711424 83.2997577104531 C 0.0 **** -0.24
36457 H 4.707401486940817 170.0829780032114 83.4677991877835 H 0.0 **** 0.06
36458 H 3.400628064122799 171.23114297300864 83.84416431451884 H 0.0 **** 0.06
36459 H 4.161076714364825 171.24338523495217 82.23376207682776 H 0.0 **** 0.06
36460 H 5.071164452528002 171.81470165332468 83.65330643958917 H 0.0 **** 0.06
36461 C 95.57732163161906 68.3329254658874 48.470347100080744 C 0.0 **** -0.24
36462 H 95.40809579660076 67.3299940363803 48.863252364746245 H 0.0 **** 0.06
36463 H 96.59846832887463 68.64202501383755 48.693325244524544 H 0.0 **** 0.06
36464 H 94.8763533779282 69.02732841972431 48.933468473529274 H 0.0 **** 0.06
36465 H 95.42546182182686 68.32939719944687 47.39068487113923 H 0.0 **** 0.06
36466 C 185.30925466687933 111.23015442637723 8.77067694627224 C 0.0 **** -0.24
36467 H 185.397283324851 111.91946490509787 7.930995828780517 H 0.0 **** 0.06
36468 H 186.13269604902976 110.51523390789009 8.742035154660755 H 0.0 **** 0.06
36469 H 184.36173282720688 110.69566251403359 8.703653674374166 H 0.0 **** 0.06
36470 H 185.34545019853695 111.78890931329869 9.705617164358237 H 0.0 **** 0.06
36471 C 45.5848596144679 160.7717098839596 21.58665463319383 C 0.0 **** -0.24
36472 H 44.737284256418974 161.41746046860243 21.358570129683557 H 0.0 **** 0.06
36473 H 45.229189388057364 159.86751423414134 22.082905915648723 H 0.0 **** 0.06
36474 H 46.27691217121182 161.29869548278933 22.24447819023277 H 0.0 **** 0.06
36475 H 46.095881939898675 160.5024473206933 20.66299875266273 H 0.0 **** 0.06
36476 C 22.936232686956316 132.16985026697915 169.70686139795035 C 0.0 **** -0.24
36477 H 22.313118853036002 131.31546954485935 169.9698520395176 H 0.0 **** 0.06
36478 H 22.301248541234088 133.0224452975561 169.4651172705332 H 0.0 **** 0.06
36479 H 23.55133038144362 131.91860783806243 168.84285883541557 H 0.0 **** 0.06
36480 H 23.579732546038883 132.4237122737175 170.54985214674056 H 0.0 **** 0.06
36481 C 68.07388153696665 48.591829511941626 127.58428977169262 C 0.0 **** -0.24
36482 H 68.79380094191673 49.31464661938969 127.20205841267199 H 0.0 **** 0.06
36483 H 67.82225518318606 47.878555305370355 126.79945702137474 H 0.0 **** 0.06
36484 H 67.17225715907995 49.11215215685854 127.9057678621254 H 0.0 **** 0.06
36485 H 68.50888526940362 48.06102931723257 128.43218440770573 H 0.0 **** 0.06
36486 C 183.75473479998533 112.8548483141513 154.17987459898 C 0.0 **** -0.24
36487 H 184.83973634350474 112.83601777339737 154.27842613159183 H 0.0 **** 0.06
36488 H 183.479674032076 113.47127210741905 153.32352264688535 H 0.0 **** 0.06
36489 H 183.31581423381024 113.2737756272358 155.08484641181371 H 0.0 **** 0.06
36490 H 183.38515490037008 111.84048061420037 154.03118963383974 H 0.0 **** 0.06
36491 C 29.31705758334931 55.648548142913384 175.68677324270925 C 0.0 **** -0.24
36492 H 28.76382334611685 56.14678126314337 174.890761938872 H 0.0 **** 0.06
36493 H 30.37025029484664 55.58194557332513 175.41115646020666 H 0.0 **** 0.06
36494 H 28.916175367094098 54.64692844420006 175.83640862454547 H 0.0 **** 0.06
36495 H 29.218767127475388 56.22131900290779 176.60956895170722 H 0.0 **** 0.06
36496 C 126.23915423692956 15.198130455545403 16.217614377232096 C 0.0 **** -0.24
36497 H 127.0367421310561 14.482531029630401 16.01601974694782 H 0.0 **** 0.06
36498 H 126.13746281496257 15.333011510265948 17.294870772697287 H 0.0 **** 0.06
36499 H 125.30202541381304 14.821845513805457 15.808101789049047 H 0.0 **** 0.06
36500 H 126.48194175376496 16.153322719170184 15.753282280838832 H 0.0 **** 0.06
36501 C 80.22252423315939 2.462825883152675 76.65816159596868 C 0.0 **** -0.24
36502 H 81.06221246359502 3.137291373381231 76.49273087715096 H 0.0 **** 0.06
36503 H 80.49665420258589 1.4574460300007104 76.33936626864916 H 0.0 **** 0.06
36504 H 79.36278035543836 2.805601916303857 76.08316298841997 H 0.0 **** 0.06
36505 H 79.9688336918041 2.4512177298431084 77.7187235943786 H 0.0 **** 0.06
36506 C 173.90616818094352 97.96676279336309 90.78156751896994 C 0.0 **** -0.24
36507 H 174.9690019435558 97.90720032669422 91.01635907225106 H 0.0 **** 0.06
36508 H 173.65890739094976 98.98189403131 90.47142879579455 H 0.0 **** 0.06
36509 H 173.3246463605957 97.70517678030005 91.66574990974512 H 0.0 **** 0.06
36510 H 173.67295012775188 97.27230145853052 89.97475146472912 H 0.0 **** 0.06
36511 C 107.30476093390403 3.296130365095223 47.28281150052334 C 0.0 **** -0.24
36512 H 107.11948507055523 3.4293867488984233 48.34901409520026 H 0.0 **** 0.06
36513 H 106.5071697005847 2.69459983091474 46.84805228311396 H 0.0 **** 0.06
36514 H 108.25985880444257 2.7901012385646595 47.14095611151794 H 0.0 **** 0.06
36515 H 107.33408552589101 4.269795957743327 46.79469806962149 H 0.0 **** 0.06
36516 C 161.02571704996382 124.68538465490987 45.480997216608884 C 0.0 **** -0.24
36517 H 162.0345704261325 125.04916628697883 45.67869693866861 H 0.0 **** 0.06
36518 H 160.63302655700292 124.20071770819088 46.374500140350875 H 0.0 **** 0.06
36519 H 161.05360763028386 123.96925018994075 44.66006183944934 H 0.0 **** 0.06
36520 H 160.38433131913212 125.52372560647582 45.20966319865204 H 0.0 **** 0.06
36521 C 13.454510960528324 140.85520902951401 184.1425209140226 C 0.0 **** -0.24
36522 H 13.867305076151922 140.66316883467817 183.15250074857198 H 0.0 **** 0.06
36523 H 14.263129545544473 141.10506943987843 184.8302629817467 H 0.0 **** 0.06
36524 H 12.937118657393626 139.96517043478804 184.49894038322773 H 0.0 **** 0.06
36525 H 12.752867537367052 141.6875050802849 184.0877929350219 H 0.0 **** 0.06
36526 C 45.23252606585396 32.066339808840155 0.5678689390655052 C 0.0 **** -0.24
36527 H 44.89973827230273 31.228000866781287 1.1793592910320854 H 0.0 **** 0.06
36528 H 44.48416589511132 32.85767419405295 0.5999046771655117 H 0.0 **** 0.06
36529 H 45.36781161213449 31.733893951187838 -0.4608467216586689 H 0.0 **** 0.06
36530 H 46.17902409091053 32.44405311691179 0.9543149286512858 H 0.0 **** 0.06
36531 C 23.296508419953284 63.844841706559464 7.941354994782664 C 0.0 **** -0.24
36532 H 24.044399847451672 63.438266806317955 7.26022825315377 H 0.0 **** 0.06
36533 H 22.345500517065602 63.945828793768385 7.417034505686274 H 0.0 **** 0.06
36534 H 23.62192542295776 64.82242359558128 8.29581340619793 H 0.0 **** 0.06
36535 H 23.174199884820382 63.17230596198647 8.789393093255278 H 0.0 **** 0.06
36536 C 95.06773558453794 144.22947789049573 70.69791119514385 C 0.0 **** -0.24
36537 H 93.98206840302622 144.24165993535138 70.7947963571747 H 0.0 **** 0.06
36538 H 95.42727403049626 143.20319842926753 70.76828818676447 H 0.0 **** 0.06
36539 H 95.50967089538209 144.82507078850813 71.49661304229114 H 0.0 **** 0.06
36540 H 95.35006187200086 144.64934622293907 69.73275587100463 H 0.0 **** 0.06
36541 C 77.29478555324827 97.78604046057906 29.42770685062152 C 0.0 **** -0.24
36542 H 78.21186649658068 97.86895762651919 28.845964118327473 H 0.0 **** 0.06
36543 H 76.44248882184615 97.70197084172987 28.752683169878722 H 0.0 **** 0.06
36544 H 77.17887546723924 98.67237154595965 30.05163026509119 H 0.0 **** 0.06
36545 H 77.34467328084217 96.90040725638941 30.061060150340282 H 0.0 **** 0.06
36546 C 42.031178334721034 108.4341576758992 135.4168224015071 C 0.0 **** -0.24
36547 H 42.30547833626633 107.61185489397678 134.75595327005556 H 0.0 **** 0.06
36548 H 42.13898113263352 108.11701407272653 136.45491772371395 H 0.0 **** 0.06
36549 H 40.99710334242366 108.72170004909037 135.2299384057569 H 0.0 **** 0.06
36550 H 42.685254698390224 109.2856922356234 135.22767858811744 H 0.0 **** 0.06
36551 C 122.28468534956941 24.984503347509758 144.39399847514494 C 0.0 **** -0.24
36552 H 121.2953130284615 25.17344271201347 143.9767758690387 H 0.0 **** 0.06
36553 H 122.18995937725369 24.37243546215916 145.2915369331738 H 0.0 **** 0.06
36554 H 122.75800517134009 25.932497207516008 144.64865773359531 H 0.0 **** 0.06
36555 H 122.8944897275092 24.459862340270035 143.6590523706825 H 0.0 **** 0.06
36556 C 147.94895983951216 110.7051102504527 132.48731680815337 C 0.0 **** -0.24
36557 H 147.96781699127848 109.70476215013865 132.91914945530175 H 0.0 **** 0.06
36558 H 148.0265861354314 110.63316872987049 131.4018427308638 H 0.0 **** 0.06
36559 H 148.78769869776482 111.2835300731464 132.8742819125099 H 0.0 **** 0.06
36560 H 147.01453627213687 111.19795583348794 132.75343362573477 H 0.0 **** 0.06
36561 C 31.824501842154717 158.13310350328842 159.1180020419151 C 0.0 **** -0.24
36562 H 31.75328235702372 158.99265524446824 159.78385257434942 H 0.0 **** 0.06
36563 H 30.823410999719272 157.82143182857422 158.81884777865855 H 0.0 **** 0.06
36564 H 32.32019638137251 157.31223181450844 159.63630307363528 H 0.0 **** 0.06
36565 H 32.400962210415 158.40571556681948 158.23435819184965 H 0.0 **** 0.06
36566 C 35.21096224782714 180.63514311457993 127.24938973026529 C 0.0 **** -0.24
36567 H 34.43723919114862 180.61842470526236 126.4820883037681 H 0.0 **** 0.06
36568 H 34.904348699813255 180.0086232233823 128.08744780734963 H 0.0 **** 0.06
36569 H 35.35904702794407 181.65806161264172 127.59389659466969 H 0.0 **** 0.06
36570 H 36.14398486480141 180.25404637806236 126.83228245696243 H 0.0 **** 0.06
36571 C 61.165161316685925 153.62777445375096 181.27218090181623 C 0.0 **** -0.24
36572 H 60.83227175413285 154.16366275787698 182.16204531344079 H 0.0 **** 0.06
36573 H 61.19332368238584 154.31404847370737 180.42465847598407 H 0.0 **** 0.06
36574 H 60.47260589414873 152.81336329003506 181.05888342509456 H 0.0 **** 0.06
36575 H 62.16208375030075 153.22237394460902 181.4449653070308 H 0.0 **** 0.06
36576 C 45.83215740579175 178.71735769655868 17.125979837339727 C 0.0 **** -0.24
36577 H 45.25965810358002 179.64051107973478 17.21376783623137 H 0.0 **** 0.06
36578 H 46.4546886362222 178.5904086968637 18.01230043937929 H 0.0 **** 0.06
36579 H 46.4657322415768 178.7665487980263 16.2402944922528 H 0.0 **** 0.06
36580 H 45.148527912259254 177.8727447273631 17.03817881712598 H 0.0 **** 0.06
36581 C 22.253656803005583 34.02592926356692 101.44763405479235 C 0.0 **** -0.24
36582 H 22.224731653591334 32.97304905568325 101.16669104945971 H 0.0 **** 0.06
36583 H 22.92251961327213 34.15647613221694 102.29749897609479 H 0.0 **** 0.06
36584 H 21.251520798172805 34.35680068617444 101.71870945260018 H 0.0 **** 0.06
36585 H 22.61536228702937 34.616681346217575 100.60557437626393 H 0.0 **** 0.06
36586 C 140.0982529087771 161.22834548693226 1.0976843981694273 C 0.0 **** -0.24
36587 H 140.29006098004402 160.43772027060868 1.822891118319582 H 0.0 **** 0.06
36588 H 140.97025443232678 161.87901714033666 1.0312381234983334 H 0.0 **** 0.06
36589 H 139.23305309465496 161.8098063677349 1.4150893003696439 H 0.0 **** 0.06
36590 H 139.9005699031935 160.78506897155094 0.12141356604541187 H 0.0 **** 0.06
36591 C 171.9487608555321 40.06676997510914 178.2231189233966 C 0.0 **** -0.24
36592 H 171.52360071941163 39.152735981788226 177.80849731080235 H 0.0 **** 0.06
36593 H 171.27162662608538 40.473995477962546 178.9747471677299 H 0.0 **** 0.06
36594 H 172.0901043372128 40.79635768623757 177.42666797179191 H 0.0 **** 0.06
36595 H 172.91061177609993 39.841534198584554 178.6850442891221 H 0.0 **** 0.06
36596 C 52.06763423779006 100.50337906377881 31.080470483997672 C 0.0 **** -0.24
36597 H 53.070282651923776 100.91495651055722 31.201361162393795 H 0.0 **** 0.06
36598 H 51.445479782977344 100.81004835331082 31.921587691497677 H 0.0 **** 0.06
36599 H 52.12314794709522 99.41527679307627 31.046264597544265 H 0.0 **** 0.06
36600 H 51.63265431835276 100.87445780061002 30.151999469201314 H 0.0 **** 0.06
36601 C 142.61643227500196 182.11178647363295 102.71657730840332 C 0.0 **** -0.24
36602 H 142.81468704266848 181.96381506508374 101.65456087881029 H 0.0 **** 0.06
36603 H 141.92268922335967 182.94275225475894 102.8436080433728 H 0.0 **** 0.06
36604 H 143.54986886799006 182.33592700168094 103.2321396180485 H 0.0 **** 0.06
36605 H 142.17900237083478 181.20486518696634 103.13408086933924 H 0.0 **** 0.06
36606 C 111.77740497555762 116.92171834103898 68.7305190931857 C 0.0 **** -0.24
36607 H 112.29660794979445 116.69930250888531 67.79774695748196 H 0.0 **** 0.06
36608 H 110.92776601120833 116.24906931215979 68.84294795861271 H 0.0 **** 0.06
36609 H 111.42506381631155 117.95319954916373 68.71214530080024 H 0.0 **** 0.06
36610 H 112.46166793706844 116.78664456131803 69.56723863918401 H 0.0 **** 0.06
36611 C 170.37750587463472 176.97030644962064 79.01535606235029 C 0.0 **** -0.24
36612 H 169.55960376688333 176.85189877390926 79.72556667190804 H 0.0 **** 0.06
36613 H 171.25217008818439 176.42639430684216 79.3754345507532 H 0.0 **** 0.06
36614 H 170.6225035897183 178.02686544873373 78.91636861005765 H 0.0 **** 0.06
36615 H 170.07657022039436 176.57381294378288 78.04585413599631 H 0.0 **** 0.06
36616 C 178.03000661307493 47.349201104760766 181.7731126369531 C 0.0 **** -0.24
36617 H 177.3474096647441 48.1940202501423 181.869975447872 H 0.0 **** 0.06
36618 H 178.86965636149046 47.632409841838125 181.1391998284339 H 0.0 **** 0.06
36619 H 177.50255239692626 46.50653191953052 181.32451583262736 H 0.0 **** 0.06
36620 H 178.3971428375408 47.065349107163314 182.75902154829168 H 0.0 **** 0.06
36621 C 177.08172793957294 40.571477546814805 167.24794184695102 C 0.0 **** -0.24
36622 H 178.0036851498421 41.153149811787685 167.26077352483097 H 0.0 **** 0.06
36623 H 176.30696791033563 41.13033642150573 166.72128440227706 H 0.0 **** 0.06
36624 H 176.75955688510896 40.38020126583305 168.2711336859809 H 0.0 **** 0.06
36625 H 177.2573292723057 39.62436736073225 166.73865822374415 H 0.0 **** 0.06
36626 C 121.34098240429495 28.62107223459961 60.41610518707303 C 0.0 **** -0.24
36627 H 120.7560840199211 28.156329884692497 59.62225646347271 H 0.0 **** 0.06
36628 H 121.60541451169325 29.637641757171025 60.12379123518885 H 0.0 **** 0.06
36629 H 122.24874314443105 28.042390097785045 60.584178870097276 H 0.0 **** 0.06
36630 H 120.75180298246056 28.64831842912963 61.33267957797602 H 0.0 **** 0.06
36631 C 140.69446014139385 184.40181288338647 92.4008088133005 C 0.0 **** -0.24
36632 H 141.62858850070165 183.90255272658663 92.14265599574645 H 0.0 **** 0.06
36633 H 140.3881222049626 184.1014035453686 93.40337087580423 H 0.0 **** 0.06
36634 H 139.922202241803 184.12179691261832 91.6842704969967 H 0.0 **** 0.06
36635 H 140.84013520443665 185.482009897277 92.3734671322539 H 0.0 **** 0.06
36636 C 55.61439967691621 6.663008546092328 177.81995250507794 C 0.0 **** -0.24
36637 H 54.760370529016484 7.07565300073378 178.35651388824564 H 0.0 **** 0.06
36638 H 56.04787650270217 5.84756111769272 178.40024013464546 H 0.0 **** 0.06
36639 H 56.36216900531704 7.442129216197316 177.67347941956726 H 0.0 **** 0.06
36640 H 55.28704375456587 6.285379356619387 176.85164075720576 H 0.0 **** 0.06
36641 C 8.410196907053056 160.9159380262461 88.33508660544724 C 0.0 **** -0.24
36642 H 7.462624288264777 161.01125673241782 87.80428451885841 H 0.0 **** 0.06
36643 H 8.514126093717522 159.89830692856228 88.71282071830798 H 0.0 **** 0.06
36644 H 8.43121261974985 161.61743368891823 89.1685507714488 H 0.0 **** 0.06
36645 H 9.231592351808324 161.13572431216818 87.65284113363383 H 0.0 **** 0.06
36646 C 138.2990434521817 47.35964846202863 162.01016631243783 C 0.0 **** -0.24
36647 H 137.53638574728194 46.642587243996715 161.70537816760512 H 0.0 **** 0.06
36648 H 139.27613667788302 46.87539778834264 162.00130595888518 H 0.0 **** 0.06
36649 H 138.07996498840077 47.71678744888416 163.01587188886054 H 0.0 **** 0.06
36650 H 138.3041263445897 48.201415732570126 161.31796953363528 H 0.0 **** 0.06
36651 C 1.587796720824251 73.77130856373893 15.189032544291962 C 0.0 **** -0.24
36652 H 0.8363867118191948 73.02866456579305 14.919809093113173 H 0.0 **** 0.06
36653 H 1.2682554332660558 74.30081841942203 16.08662880269077 H 0.0 **** 0.06
36654 H 1.7068612550504838 74.48009475396998 14.369934796180871 H 0.0 **** 0.06
36655 H 2.5380520847541206 73.27277238624139 15.379901039912653 H 0.0 **** 0.06
36656 C 53.684937908886695 166.69996832685467 10.994296437160571 C 0.0 **** -0.24
36657 H 54.41332991820778 165.95607804378267 11.316058266502601 H 0.0 **** 0.06
36658 H 53.59849639569302 167.47655146232182 11.754060778352638 H 0.0 **** 0.06
36659 H 52.71588632354809 166.22045226346614 10.851629818853851 H 0.0 **** 0.06
36660 H 54.01169435104137 167.14472882910144 10.054161502903028 H 0.0 **** 0.06
36661 C 113.43037546016363 14.596796929938279 20.664322552750143 C 0.0 **** -0.24
36662 H 113.14892764679924 13.599576647850796 20.999318292622746 H 0.0 **** 0.06
36663 H 113.88709718384509 14.532807096474102 19.676329663463555 H 0.0 **** 0.06
36664 H 114.14261443758234 15.028699393186429 21.36703960318613 H 0.0 **** 0.06
36665 H 112.54305248887327 15.22778613476629 20.61423334562727 H 0.0 **** 0.06
36666 C 20.46136141816703 42.515208256528865 58.46608293567755 C 0.0 **** -0.24
36667 H 21.447297345905753 42.617963032033856 58.9199498529689 H 0.0 **** 0.06
36668 H 20.096157260486166 43.49850904039661 58.16677557222317 H 0.0 **** 0.06
36669 H 19.7737172913929 42.075850954012424 59.187555067555024 H 0.0 **** 0.06
36670 H 20.52979805027718 41.871049837687735 57.58957582403343 H 0.0 **** 0.06
36671 C 87.81938121209537 122.46710779974882 17.689233818162506 C 0.0 **** -0.24
36672 H 88.84803442011516 122.46653573796704 18.049871608343153 H 0.0 **** 0.06
36673 H 87.6053794014533 123.41877287432442 17.204643135889512 H 0.0 **** 0.06
36674 H 87.14030536883224 122.3256867826135 18.530964473774134 H 0.0 **** 0.06
36675 H 87.68528896630168 121.65540092637588 16.97422361947929 H 0.0 **** 0.06
36676 C 98.00573494401415 20.880845205644995 181.77794826657907 C 0.0 **** -0.24
36677 H 97.34305217028644 20.481619553590576 182.54594747852855 H 0.0 **** 0.06
36678 H 98.40852308665119 21.838800822394248 182.10744655369143 H 0.0 **** 0.06
36679 H 97.44708022908416 21.0193236814413 180.85219668595397 H 0.0 **** 0.06
36680 H 98.82471743010818 20.18200763566214 181.6066003442748 H 0.0 **** 0.06
36681 C 170.43783965972534 42.33995349153888 22.56223416550452 C 0.0 **** -0.24
36682 H 170.6393013842951 41.26961919439496 22.529249183279134 H 0.0 **** 0.06
36683 H 171.1742463492007 42.866293876376545 21.95439260106025 H 0.0 **** 0.06
36684 H 170.50007053086637 42.68943669573213 23.59194680883138 H 0.0 **** 0.06
36685 H 169.43821935194427 42.533564591721884 22.171357739780916 H 0.0 **** 0.06
36686 C 51.34965156312501 173.03008868429387 144.17050625773606 C 0.0 **** -0.24
36687 H 50.897871392845474 172.59925333413182 145.06362154937187 H 0.0 **** 0.06
36688 H 52.43498539700535 172.97159425347266 144.24778636558284 H 0.0 **** 0.06
36689 H 51.04717173196005 174.07370105201036 144.07831316647034 H 0.0 **** 0.06
36690 H 51.016970931211176 172.4768844952036 143.29179862504907 H 0.0 **** 0.06
36691 C 72.07551286651474 163.91282076952203 2.064551816388324 C 0.0 **** -0.24
36692 H 71.58579350538112 163.95082625918008 1.091913202425495 H 0.0 **** 0.06
36693 H 72.4025329938532 164.9133326033165 2.346731293588661 H 0.0 **** 0.06
36694 H 72.93843212618145 163.24953167173635 2.011248247059058 H 0.0 **** 0.06
36695 H 71.3731251400649 163.53555113342853 2.8086805007717857 H 0.0 **** 0.06
36696 C 162.229421603473 18.359965884280427 61.66482960008858 C 0.0 **** -0.24
36697 H 162.53392567013952 17.403646021623985 61.24035823392933 H 0.0 **** 0.06
36698 H 162.34741618119216 19.143744536912948 60.916730902640325 H 0.0 **** 0.06
36699 H 162.85172942573288 18.587275338703193 62.530462751801736 H 0.0 **** 0.06
36700 H 161.18592612583785 18.30503915574471 61.97288734414593 H 0.0 **** 0.06
36701 C 122.0938221626789 83.80009127687896 98.41411751597417 C 0.0 **** -0.24
36702 H 121.49986667021228 84.52237312212256 97.85299702750495 H 0.0 **** 0.06
36703 H 121.80032666757207 82.78930950100765 98.12838513635921 H 0.0 **** 0.06
36704 H 121.92255173128994 83.9407065502029 99.48141885619202 H 0.0 **** 0.06
36705 H 123.14969725136412 83.94921773500047 98.19250430930072 H 0.0 **** 0.06
36706 C 124.5215178642364 48.585990277752614 180.1978495191927 C 0.0 **** -0.24
36707 H 124.81727481662402 49.60007531774116 179.92833378805008 H 0.0 **** 0.06
36708 H 123.59516107278203 48.329048614374756 179.6833104442452 H 0.0 **** 0.06
36709 H 124.36659453232129 48.528049211616974 181.27558602520577 H 0.0 **** 0.06
36710 H 125.30561177936927 47.888652413151505 179.90486151775607 H 0.0 **** 0.06
36711 C 121.09958114038248 44.34555091557348 5.981199043355787 C 0.0 **** -0.24
36712 H 122.16951949482241 44.13966461875964 5.950766934614023 H 0.0 **** 0.06
36713 H 120.86812173404552 45.16258915299002 5.297627955418591 H 0.0 **** 0.06
36714 H 120.81309756642257 44.62768974251935 6.994125594173397 H 0.0 **** 0.06
36715 H 120.54960725429966 43.453641067034965 5.682358133136546 H 0.0 **** 0.06
36716 C 144.73317595138772 155.45962013719836 98.40698122467471 C 0.0 **** -0.24
36717 H 145.21218380647016 154.56413489800337 98.01064799077669 H 0.0 **** 0.06
36718 H 143.67239616838214 155.44677209664107 98.15544085493714 H 0.0 **** 0.06
36719 H 145.1997668001331 156.3433496228091 97.97089802398885 H 0.0 **** 0.06
36720 H 144.84933070820327 155.4846681509693 99.49001354524383 H 0.0 **** 0.06
36721 C 179.03807435657728 170.4555054431122 141.56191643861223 C 0.0 **** -0.24
36722 H 178.70453823032884 171.0206652635038 142.43296547550307 H 0.0 **** 0.06
36723 H 179.00355695137088 169.38997010243122 141.78654351364463 H 0.0 **** 0.06
36724 H 180.05917573184476 170.74238544763085 141.31255087630302 H 0.0 **** 0.06
36725 H 178.38308760991617 170.67118056390976 140.71718394144887 H 0.0 **** 0.06
36726 C 14.225410590310247 102.02236486478681 49.64530071059298 C 0.0 **** -0.24
36727 H 13.697263065349802 102.908935030052 49.99651133392359 H 0.0 **** 0.06
36728 H 15.190504378573394 101.95276773651612 50.14786772168952 H 0.0 **** 0.06
36729 H 14.38134355057818 102.09596232188731 48.56901929306645 H 0.0 **** 0.06
36730 H 13.633713159074148 101.13488156573176 49.8675345575366 H 0.0 **** 0.06
36731 C 133.22851934042978 45.00423470123326 8.263961178579756 C 0.0 **** -0.24
36732 H 133.50004595333996 44.11859948937109 7.688734306400924 H 0.0 **** 0.06
36733 H 133.84524205681578 45.05639914065952 9.161766475285333 H 0.0 **** 0.06
36734 H 132.17766695143962 44.94492847158412 8.546495033750219 H 0.0 **** 0.06
36735 H 133.39218276500281 45.89450402527277 7.657240351621169 H 0.0 **** 0.06
36736 C 20.694888158087196 79.05317607576421 157.7509738132883 C 0.0 **** -0.24
36737 H 20.920155414420748 79.99212619436338 157.24421082341573 H 0.0 **** 0.06
36738 H 21.591936693044374 78.43423879461966 157.78206958611293 H 0.0 **** 0.06
36739 H 19.909126388770858 78.52831974249796 157.2090507589471 H 0.0 **** 0.06
36740 H 20.36036184628753 79.26010960557733 158.76733104109738 H 0.0 **** 0.06
36741 C 135.57534271710546 76.66472004863597 53.5615796295325 C 0.0 **** -0.24
36742 H 134.74428387234803 76.4595211429865 54.23674700256262 H 0.0 **** 0.06
36743 H 135.99481689484554 77.64462278213226 53.78906678472694 H 0.0 **** 0.06
36744 H 135.21814600655762 76.65161267524844 52.53138931047937 H 0.0 **** 0.06
36745 H 136.34330266695906 75.90111502121356 53.68965487818258 H 0.0 **** 0.06
36746 C 12.835815713666562 131.082204645871 116.74279639049718 C 0.0 **** -0.24
36747 H 12.466134165261167 131.68405983559188 117.57272424038916 H 0.0 **** 0.06
36748 H 12.228659317113227 131.2720191461804 115.85759758098567 H 0.0 **** 0.06
36749 H 12.777201111362587 130.02615855660855 117.00557260619979 H 0.0 **** 0.06
36750 H 13.872945255457239 131.3474768500805 116.53646814179353 H 0.0 **** 0.06
36751 C 2.211616489455139 83.55778549454364 99.93112962337132 C 0.0 **** -0.24
36752 H 1.8484189647917333 84.23212680738945 100.7062726424948 H 0.0 **** 0.06
36753 H 3.2281948901079147 83.83573228146469 99.65438193727967 H 0.0 **** 0.06
36754 H 1.56442334922815 83.62728201635541 99.05697081085312 H 0.0 **** 0.06
36755 H 2.204522512806875 82.53455685385319 100.30793887296717 H 0.0 **** 0.06
36756 C 17.480636028578253 60.60684960180848 31.684293503729137 C 0.0 **** -0.24
36757 H 17.19443246463505 61.6191143670316 31.971756468488536 H 0.0 **** 0.06
36758 H 18.44967987423948 60.63185829959636 31.185250450875913 H 0.0 **** 0.06
36759 H 16.732444835532057 60.19757254135962 31.00582347658664 H 0.0 **** 0.06
36760 H 17.54563298044493 59.98105065874212 32.57412912411746 H 0.0 **** 0.06
36761 C 132.38859562642006 11.907024311551496 13.246386548044342 C 0.0 **** -0.24
36762 H 133.25780693488633 12.370255250883801 13.712733145175093 H 0.0 **** 0.06
36763 H 132.3379233733117 10.85688746307536 13.535283247772583 H 0.0 **** 0.06
36764 H 132.47526741468283 11.981810467406376 12.16192888579235 H 0.0 **** 0.06
36765 H 131.4843993374073 12.418185230651915 13.575374274127512 H 0.0 **** 0.06
36766 C 138.48530359708008 22.72304161290839 120.22535382696823 C 0.0 **** -0.24
36767 H 137.49001981305275 22.29324760166776 120.10863758571831 H 0.0 **** 0.06
36768 H 138.9567682399824 22.31032051125851 121.11750670464507 H 0.0 **** 0.06
36769 H 138.40401943309172 23.80492767228384 120.32467539535769 H 0.0 **** 0.06
36770 H 139.08935666948588 22.48171933380604 119.35089468042763 H 0.0 **** 0.06
36771 C 117.33888020453507 98.09197058745603 129.62213150850295 C 0.0 **** -0.24
36772 H 118.14245848810346 98.49567093173702 129.00515309002117 H 0.0 **** 0.06
36773 H 116.43298220076032 98.67813959483543 129.46832299173047 H 0.0 **** 0.06
36774 H 117.62933830153149 98.13865139873279 130.67102822650907 H 0.0 **** 0.06
36775 H 117.15286300208994 97.05525362649765 129.3419067741549 H 0.0 **** 0.06
36776 C 100.35374935300722 156.43505097517806 174.4025122587572 C 0.0 **** -0.24
36777 H 99.67668846277921 156.98005542937486 173.74377552035457 H 0.0 **** 0.06
36778 H 99.85524368971996 155.5384194122346 174.77293680706248 H 0.0 **** 0.06
36779 H 100.63161683637581 157.07056859789895 175.24355767056818 H 0.0 **** 0.06
36780 H 101.24825339387782 156.1517194235215 173.84908649035356 H 0.0 **** 0.06
36781 C 156.00508573776227 88.33137377820161 70.10082621053796 C 0.0 **** -0.24
36782 H 155.58151706336716 87.35179746416192 69.88004990546422 H 0.0 **** 0.06
36783 H 156.67625087066068 88.25265304284748 70.95634931672852 H 0.0 **** 0.06
36784 H 155.20259312915914 89.03114312901452 70.33092357102647 H 0.0 **** 0.06
36785 H 156.56240822909376 88.68871456648013 69.23433755529872 H 0.0 **** 0.06
36786 C 141.25676557622876 15.655597380638454 10.136848119950457 C 0.0 **** -0.24
36787 H 142.10894743883927 16.326978357583613 10.033712249705388 H 0.0 **** 0.06
36788 H 140.49186479738552 16.130547092264152 10.752331642875419 H 0.0 **** 0.06
36789 H 141.58056638708405 14.728747188648754 10.609344782609838 H 0.0 **** 0.06
36790 H 140.84609275439095 15.436470852579419 9.150697123635666 H 0.0 **** 0.06
36791 C 126.79450867605347 69.90310094831416 126.68566813326753 C 0.0 **** -0.24
36792 H 126.32347107061763 70.8407557083682 126.39069781628679 H 0.0 **** 0.06
36793 H 126.7989624732897 69.21632014906054 125.83940537595207 H 0.0 **** 0.06
36794 H 126.23557739091119 69.45979654442336 127.51068657166122 H 0.0 **** 0.06
36795 H 127.81935094081645 70.09565451166183 127.00376219513704 H 0.0 **** 0.06
36796 C 45.24853113496701 105.60865739449373 175.90774029857977 C 0.0 **** -0.24
36797 H 44.188362107005304 105.61501945412199 175.6555310454412 H 0.0 **** 0.06
36798 H 45.62693326241833 104.58707017313891 175.85909084485036 H 0.0 **** 0.06
36799 H 45.38455892771043 105.99940167794126 176.91578131397995 H 0.0 **** 0.06
36800 H 45.79404076699271 106.23186284906471 175.19940876883555 H 0.0 **** 0.06
36801 C 162.8568500634547 110.94993527150588 161.67573965941529 C 0.0 **** -0.24
36802 H 163.44599325412622 111.7985081428689 162.02533053123994 H 0.0 **** 0.06
36803 H 161.79773181294172 111.15607673506425 161.82854534856855 H 0.0 **** 0.06
36804 H 163.13837030866227 110.05779778653972 162.23509680939063 H 0.0 **** 0.06
36805 H 163.04679883223355 110.7887777345817 160.61485415068927 H 0.0 **** 0.06
36806 C 179.17429212168315 113.28143968593024 74.44187755907309 C 0.0 **** -0.24
36807 H 180.22779724146244 113.27736872320541 74.72066195772467 H 0.0 **** 0.06
36808 H 178.58866724229898 112.80657539878779 75.22939250227853 H 0.0 **** 0.06
36809 H 179.0435482703599 112.73241538003795 73.50916928254341 H 0.0 **** 0.06
36810 H 178.8377283820913 114.30980479066118 74.30757401404759 H 0.0 **** 0.06
36811 C 150.33450969342346 105.75301927757444 121.22498114506179 C 0.0 **** -0.24
36812 H 151.3544670738769 105.8222387781078 120.8478870635493 H 0.0 **** 0.06
36813 H 149.79015146502854 106.66289156118786 120.9692743864005 H 0.0 **** 0.06
36814 H 150.35514806713195 105.63407157543683 122.30869092500087 H 0.0 **** 0.06
36815 H 149.8375012858769 104.89340171269602 120.77443073801244 H 0.0 **** 0.06
36816 C 140.44165530627885 120.3576777102815 146.4605085898882 C 0.0 **** -0.24
36817 H 140.04693374329548 120.08622953371194 145.4806641251845 H 0.0 **** 0.06
36818 H 141.2819452517628 121.0412735546417 146.33568505925655 H 0.0 **** 0.06
36819 H 140.7773503451395 119.45912722760643 146.97791580532535 H 0.0 **** 0.06
36820 H 139.66074985875684 120.84365120096986 147.0453844832576 H 0.0 **** 0.06
36821 C 184.81997321071233 181.1649566676056 25.38314993696781 C 0.0 **** -0.24
36822 H 183.92786108658152 181.241219095963 26.004808496101532 H 0.0 **** 0.06
36823 H 185.49542291216764 181.98841106990034 25.614800337653662 H 0.0 **** 0.06
36824 H 184.53507879663877 181.21135371136072 24.332476900831523 H 0.0 **** 0.06
36825 H 185.32046573463572 180.21656606037396 25.58243338115011 H 0.0 **** 0.06
36826 C 149.73934109307095 115.87746095137395 90.3124100214011 C 0.0 **** -0.24
36827 H 149.7650958582452 114.82990528395153 90.01509009648537 H 0.0 **** 0.06
36828 H 149.2536181653648 116.46432033937405 89.53254037206845 H 0.0 **** 0.06
36829 H 150.75775328586778 116.23884485312497 90.45783582488012 H 0.0 **** 0.06
36830 H 149.18225107095688 115.97785337800177 91.24415861574103 H 0.0 **** 0.06
36831 C 182.69024904019906 45.68222813767221 92.48559777627422 C 0.0 **** -0.24
36832 H 182.83468864606328 45.175619740344416 91.53170864311228 H 0.0 **** 0.06
36833 H 182.38113724597673 44.95798388150337 93.23879330303949 H 0.0 **** 0.06
36834 H 181.9190843039944 46.445812814232454 92.37750620557766 H 0.0 **** 0.06
36835 H 183.62478368675062 46.15097057188376 92.79331985821644 H 0.0 **** 0.06
36836 C 124.58374633863956 62.69068253162618 105.23104462402132 C 0.0 **** -0.24
36837 H 125.04787609488595 63.16370024128787 106.09585220553377 H 0.0 **** 0.06
36838 H 124.8244574242401 61.62668421713238 105.22623093824926 H 0.0 **** 0.06
36839 H 124.96050867260332 63.15243595106719 104.31818959957035 H 0.0 **** 0.06
36840 H 123.50252766830651 62.819035231748344 105.28286292940972 H 0.0 **** 0.06
36841 C 6.965274263444286 130.71857615521617 183.80602995731596 C 0.0 **** -0.24
36842 H 7.042342787577752 131.56435883172924 184.4892689125526 H 0.0 **** 0.06
36843 H 6.007871843512987 130.7588086363927 183.28605944903777 H 0.0 **** 0.06
36844 H 7.034196801685795 129.78869622492533 184.37041932533631 H 0.0 **** 0.06
36845 H 7.776115266489796 130.76440155211668 183.07928360910213 H 0.0 **** 0.06
36846 C 0.14870124499984172 70.25406041598538 30.94317240737405 C 0.0 **** -0.24
36847 H 1.075464400139765 70.7654453287343 30.681296653834806 H 0.0 **** 0.06
36848 H -0.6180588612876932 70.489982273578 30.205340328489 H 0.0 **** 0.06
36849 H -0.18161085573086666 70.58132796881604 31.928454194844903 H 0.0 **** 0.06
36850 H 0.32102037763905855 69.17704498568237 30.957569843562965 H 0.0 **** 0.06
36851 C 122.79797958151782 153.9610151522645 34.935676391176 C 0.0 **** -0.24
36852 H 122.57122276145871 153.25152428473382 34.14095482102175 H 0.0 **** 0.06
36853 H 121.92018866538886 154.08808274876264 35.57012443753371 H 0.0 **** 0.06
36854 H 123.07311485427523 154.92011680803816 34.498120757785045 H 0.0 **** 0.06
36855 H 123.62790398661424 153.58357005378434 35.53389296350019 H 0.0 **** 0.06
36856 C 158.31840087585203 67.4796074825424 102.66872665977921 C 0.0 **** -0.24
36857 H 158.06508048672634 67.0226690531206 103.62548285726676 H 0.0 **** 0.06
36858 H 159.08483578798646 66.88266941312592 102.17412092068996 H 0.0 **** 0.06
36859 H 158.69447973993402 68.48837665415614 102.83618944582294 H 0.0 **** 0.06
36860 H 157.42869798085155 67.52241041502762 102.04096554627479 H 0.0 **** 0.06
36861 C 180.38703882217385 10.682418055700929 176.40401137454307 C 0.0 **** -0.24
36862 H 181.35287112830906 10.615632424466739 176.90422231435872 H 0.0 **** 0.06
36863 H 180.43993650657777 11.425099927286446 175.60848776437786 H 0.0 **** 0.06
36864 H 179.62476397818136 10.97490780511415 177.1251251902869 H 0.0 **** 0.06
36865 H 180.13154251125667 9.711824798565033 175.9786671244077 H 0.0 **** 0.06
36866 C 143.61293994386244 160.9605187056905 116.90238513245843 C 0.0 **** -0.24
36867 H 144.61956547024005 160.5562262767023 116.79072461013406 H 0.0 **** 0.06
36868 H 143.0659978617188 160.83413317885416 115.96783474295155 H 0.0 **** 0.06
36869 H 143.67285174112132 162.02041657391695 117.14849574761512 H 0.0 **** 0.06
36870 H 143.09591964349852 160.429968498533 117.70122042273145 H 0.0 **** 0.06
36871 C 5.309404360655208 114.82622153091084 85.2002975617699 C 0.0 **** -0.24
36872 H 4.360220900613342 115.03503703699126 85.69458515607943 H 0.0 **** 0.06
36873 H 5.120854084608652 114.48942849758568 84.18035901566407 H 0.0 **** 0.06
36874 H 5.8399800295723026 114.04820376516689 85.74792621769365 H 0.0 **** 0.06
36875 H 5.91320634695964 115.73306802699018 85.17820818359473 H 0.0 **** 0.06
36876 C 46.22038263311042 99.28856362005985 22.634722185220298 C 0.0 **** -0.24
36877 H 45.27452945041166 99.40825847506898 22.106906641541443 H 0.0 **** 0.06
36878 H 46.78432443545631 100.21994376071592 22.58615229374729 H 0.0 **** 0.06
36879 H 46.79718782031412 98.49007325819315 22.167895360672233 H 0.0 **** 0.06
36880 H 46.026077388871215 99.03517721304894 23.67692905783163 H 0.0 **** 0.06
36881 C 61.22309663693029 99.47826771749574 128.71498204340332 C 0.0 **** -0.24
36882 H 61.28581047514872 99.30816750865036 127.639627085646 H 0.0 **** 0.06
36883 H 60.34261869539361 100.0823431023317 128.93651288744798 H 0.0 **** 0.06
36884 H 62.11740714656918 100.00303705372612 129.05152955511062 H 0.0 **** 0.06
36885 H 61.1477031361334 98.521047168437 129.2307261659065 H 0.0 **** 0.06
36886 C 74.17799432650911 175.75727733853552 73.3267899401366 C 0.0 **** -0.24
36887 H 73.28502149154133 175.30379092233204 72.89527635051257 H 0.0 **** 0.06
36888 H 75.04710896495074 175.49123397208731 72.72423200669536 H 0.0 **** 0.06
36889 H 74.31512260173875 175.39274635610565 74.34459755961777 H 0.0 **** 0.06
36890 H 74.0633655705632 176.84111143496375 73.3405834560603 H 0.0 **** 0.06
36891 C 100.9210366071531 42.0966955034456 148.0822488686563 C 0.0 **** -0.24
36892 H 101.41129880521999 41.162767954439005 147.8058059347125 H 0.0 **** 0.06
36893 H 100.77525852993898 42.12477888937394 149.16227453899072 H 0.0 **** 0.06
36894 H 99.95416478047633 42.160970547104455 147.58263705466092 H 0.0 **** 0.06
36895 H 101.5443033070797 42.937879123485516 147.77652327864132 H 0.0 **** 0.06
36896 C 181.18660746871626 108.13133119690441 143.3906970781872 C 0.0 **** -0.24
36897 H 180.3855161355287 107.42220994204096 143.18147687906583 H 0.0 **** 0.06
36898 H 181.42825653991844 108.68457717169575 142.48358740359367 H 0.0 **** 0.06
36899 H 182.06887617610448 107.5902028750361 143.7333768761549 H 0.0 **** 0.06
36900 H 180.86261638623682 108.82633912053 144.16516019565165 H 0.0 **** 0.06
36901 C 70.62620626977778 124.19395664496227 124.69669167848188 C 0.0 **** -0.24
36902 H 70.83683255520043 123.16443614754121 124.98789178237458 H 0.0 **** 0.06
36903 H 70.78511322650567 124.852704296078 125.55013380373803 H 0.0 **** 0.06
36904 H 69.59127204781315 124.27198242001049 124.3647677726256 H 0.0 **** 0.06
36905 H 71.29090960014433 124.48401097337228 123.88346089160332 H 0.0 **** 0.06
36906 C 68.23265730524176 60.53460600304422 76.20372501118318 C 0.0 **** -0.24
36907 H 67.22573693803439 60.88993467410768 75.98769204820218 H 0.0 **** 0.06
36908 H 68.67161164322805 60.1158508120631 75.29793720382472 H 0.0 **** 0.06
36909 H 68.18905056330306 59.76708431184656 76.97602304455071 H 0.0 **** 0.06
36910 H 68.84401307951194 61.36706285302438 76.5516115804678 H 0.0 **** 0.06
36911 C 113.65526344812092 51.93810635110202 127.44437655317712 C 0.0 **** -0.24
36912 H 113.52519150683342 51.75313013755533 128.51105010873744 H 0.0 **** 0.06
36913 H 113.36139788161894 52.96206304390273 127.21454819869733 H 0.0 **** 0.06
36914 H 113.03294479991395 51.24496374065251 126.87792691109605 H 0.0 **** 0.06
36915 H 114.7006086518417 51.78987229631991 127.17553941682469 H 0.0 **** 0.06
36916 C 65.67554879684795 162.88921209275594 41.219305300295076 C 0.0 **** -0.24
36917 H 65.37093988797466 162.1580272912039 41.96779214097687 H 0.0 **** 0.06
36918 H 66.71280264459176 162.70658967442213 40.93500806225511 H 0.0 **** 0.06
36919 H 65.5836919702958 163.89360432875574 41.63303217946395 H 0.0 **** 0.06
36920 H 65.03713174469115 162.7982764265793 40.34088357939831 H 0.0 **** 0.06
36921 C 104.9545359235827 17.360876624117047 172.05875444781242 C 0.0 **** -0.24
36922 H 103.92113561534568 17.705409948879698 172.01689801531063 H 0.0 **** 0.06
36923 H 105.44578623891813 17.79397852876466 172.93110717212465 H 0.0 **** 0.06
36924 H 105.4779434160208 17.671145615153286 171.1545525312578 H 0.0 **** 0.06
36925 H 104.97201057617256 16.273652983791052 172.13417164962004 H 0.0 **** 0.06
36926 C 81.20617453504423 20.06228841941831 132.7398437693654 C 0.0 **** -0.24
36927 H 81.75213608904336 19.945821835045933 133.67653416772072 H 0.0 **** 0.06
36928 H 80.27545985848322 19.495718468054577 132.7888548101061 H 0.0 **** 0.06
36929 H 81.81538802442628 19.690697535421236 131.91586409484484 H 0.0 **** 0.06
36930 H 80.98241534867809 21.117153011376615 132.5787944034971 H 0.0 **** 0.06
36931 C 150.60887972973538 160.90188253740467 97.26826626958244 C 0.0 **** -0.24
36932 H 151.6225879321584 161.0918120152307 97.62175438833263 H 0.0 **** 0.06
36933 H 149.89355769543363 161.2387063015603 98.01911547038263 H 0.0 **** 0.06
36934 H 150.47843116054065 159.8333848342564 97.09550573165664 H 0.0 **** 0.06
36935 H 150.44138429102827 161.44343205619236 96.33801860091008 H 0.0 **** 0.06
36936 C 118.38706772870695 30.19440383078097 64.0604719567537 C 0.0 **** -0.24
36937 H 119.13386868273348 30.641745784459886 63.404258665835954 H 0.0 **** 0.06
36938 H 118.44622208328575 30.654136859571963 65.0464443906705 H 0.0 **** 0.06
36939 H 118.57496405121996 29.12394062113526 64.14694661285967 H 0.0 **** 0.06
36940 H 117.39319780473859 30.355660806094193 63.64116280776926 H 0.0 **** 0.06
36941 C 118.90267585441966 91.83876255476609 164.77984771451762 C 0.0 **** -0.24
36942 H 119.41120977411207 91.93126438090836 165.73909742583368 H 0.0 **** 0.06
36943 H 118.80546282960414 92.82442819848207 164.32336851353912 H 0.0 **** 0.06
36944 H 117.9117822582965 91.41072955997872 164.93369509280467 H 0.0 **** 0.06
36945 H 119.4812995275643 91.1889384503382 164.12328496609024 H 0.0 **** 0.06
36946 C 103.39093326111607 27.998698760878767 47.121753440031 C 0.0 **** -0.24
36947 H 103.64585795547147 29.056822223451263 47.179063965247195 H 0.0 **** 0.06
36948 H 102.76659331005591 27.823152742428846 46.24544436509001 H 0.0 **** 0.06
36949 H 102.84526260616995 27.70788222880742 48.02013903485221 H 0.0 **** 0.06
36950 H 104.30333976414282 27.408350748602743 47.04327454183857 H 0.0 **** 0.06
36951 C 164.79999796996393 37.74887477156203 172.7864154437827 C 0.0 **** -0.24
36952 H 165.4296600662994 38.40961722163185 172.19225353618089 H 0.0 **** 0.06
36953 H 164.64466745241089 36.81338115129668 172.24830068064776 H 0.0 **** 0.06
36954 H 163.83729354413606 38.22839570200989 172.96618822429144 H 0.0 **** 0.06
36955 H 165.2860263071035 37.54290844626952 173.74035868380864 H 0.0 **** 0.06
36956 C 147.4058875838958 139.73085740318305 90.09541852858997 C 0.0 **** -0.24
36957 H 147.81045117375945 138.7190581662062 90.07996026805311 H 0.0 **** 0.06
36958 H 148.0897088242426 140.38751246727304 90.63324563870152 H 0.0 **** 0.06
36959 H 146.43722497003534 139.7271974591061 90.59432902862595 H 0.0 **** 0.06
36960 H 147.28623067380607 140.0896933968367 89.07272681627809 H 0.0 **** 0.06
36961 C 115.09690614315024 119.45684984602708 14.484851359246512 C 0.0 **** -0.24
36962 H 115.26265702127775 120.2470308515597 13.75306247566538 H 0.0 **** 0.06
36963 H 115.8079427835638 118.64764985494885 14.312344304525041 H 0.0 **** 0.06
36964 H 114.08129309644958 119.07538368796496 14.383470630587027 H 0.0 **** 0.06
36965 H 115.23686748069774 119.85634475084764 15.48859683163807 H 0.0 **** 0.06
36966 C 21.936902022137247 175.74650782936467 21.311107970392925 C 0.0 **** -0.24
36967 H 22.343270704954875 175.06507426496177 20.56436830386329 H 0.0 **** 0.06
36968 H 21.374409755871966 175.1798342336126 22.053152342776826 H 0.0 **** 0.06
36969 H 21.27689235631334 176.46570831009996 20.825597636185023 H 0.0 **** 0.06
36970 H 22.754107002838737 176.27725167374672 21.800623424696568 H 0.0 **** 0.06
36971 C 152.06042797559772 137.7230369603859 142.37276711096865 C 0.0 **** -0.24
36972 H 151.2062625257637 137.07405305077634 142.56408782289782 H 0.0 **** 0.06
36973 H 152.27045818218204 138.31857385698027 143.26222454393354 H 0.0 **** 0.06
36974 H 151.83345042494096 138.38498655700124 141.5376849231174 H 0.0 **** 0.06
36975 H 152.93144677552027 137.115225617085 142.12865653278408 H 0.0 **** 0.06
36976 C 133.8727545877751 75.52142928289673 25.552645900791163 C 0.0 **** -0.24
36977 H 133.03705492781904 74.98764820173665 26.005483847297654 H 0.0 **** 0.06
36978 H 133.52265483118578 76.47422668415895 25.154919050298275 H 0.0 **** 0.06
36979 H 134.29122746013047 74.9215088236215 24.74476456616253 H 0.0 **** 0.06
36980 H 134.63890297844523 75.70109542526995 26.307170980281285 H 0.0 **** 0.06
36981 C 181.61176671198615 56.63910873879877 0.5599336114113385 C 0.0 **** -0.24
36982 H 181.7021634877832 56.092435492260165 -0.3790622157057584 H 0.0 **** 0.06
36983 H 181.56151758781937 57.70832011391292 0.3534791842908831 H 0.0 **** 0.06
36984 H 182.47775713713204 56.42890962223356 1.1868093992011808 H 0.0 **** 0.06
36985 H 180.70472274902662 56.3248727677103 1.0766156946530216 H 0.0 **** 0.06
36986 C 150.02454285192164 125.29604365225784 75.71983738647594 C 0.0 **** -0.24
36987 H 149.15670954683668 125.10002485429762 76.3489131598862 H 0.0 **** 0.06
36988 H 150.80469502390991 124.56617462026618 75.93821360071604 H 0.0 **** 0.06
36989 H 150.39941473813946 126.29969982686724 75.9218862161128 H 0.0 **** 0.06
36990 H 149.73802287062404 125.21972373483335 74.67100902577187 H 0.0 **** 0.06
36991 C 1.7374359582893177 59.840993714661096 6.128147788034084 C 0.0 **** -0.24
36992 H 2.363015913849054 58.998469752263745 5.833932821146277 H 0.0 **** 0.06
36993 H 1.6783451159102896 59.88651039173968 7.215189114725632 H 0.0 **** 0.06
36994 H 0.7373149674663395 59.71303121217767 5.714489770240817 H 0.0 **** 0.06
36995 H 2.172720370689234 60.76546453933791 5.748837182819329 H 0.0 **** 0.06
36996 C 79.36989565825313 24.477261613170754 167.34513701997534 C 0.0 **** -0.24
36997 H 79.4347538929891 24.492940810205482 168.43332631780095 H 0.0 **** 0.06
36998 H 80.3672395552867 24.59749855558266 166.920548248685 H 0.0 **** 0.06
36999 H 78.7297245360123 25.291140461161888 167.00766780824569 H 0.0 **** 0.06
37000 H 78.95014430308606 23.52470667588574 167.02105174353355 H 0.0 **** 0.06
37001 C 14.043981773594773 120.84043959647823 161.03557001553617 C 0.0 **** -0.24
37002 H 13.220090506019645 120.183376523238 160.75484294038074 H 0.0 **** 0.06
37003 H 14.94094952999641 120.55252950311058 160.48593284341115 H 0.0 **** 0.06
37004 H 14.229110057089784 120.75287877025374 162.10562419885707 H 0.0 **** 0.06
37005 H 13.784952066952528 121.87161833726958 160.79401382025293 H 0.0 **** 0.06
37006 C 19.96495606639712 94.10215488731934 163.3837130929412 C 0.0 **** -0.24
37007 H 19.11789575269045 93.90036627967784 164.03895467653888 H 0.0 **** 0.06
37008 H 19.731253704382688 93.76413906832208 162.3735413722025 H 0.0 **** 0.06
37009 H 20.843163550580606 93.5700482007759 163.75032115207233 H 0.0 **** 0.06
37010 H 20.167692474106893 95.17320924408033 163.37155231087905 H 0.0 **** 0.06
37011 C 167.35407268137715 15.123711942659497 2.6976045438916643 C 0.0 **** -0.24
37012 H 167.54405212037165 15.046112069834166 1.6268905547229124 H 0.0 **** 0.06
37013 H 168.13189292684876 15.729920055775175 3.161184887718342 H 0.0 **** 0.06
37014 H 167.35873755362178 14.1266685137618 3.138968365790433 H 0.0 **** 0.06
37015 H 166.3831901932375 15.58987706415602 2.8622150240794397 H 0.0 **** 0.06
37016 C 177.34819972008785 106.18243232613163 3.723837901423167 C 0.0 **** -0.24
37017 H 177.19523031751237 107.2617258582997 3.719021123949517 H 0.0 **** 0.06
37018 H 178.4139138463205 105.96686842903465 3.640669421348406 H 0.0 **** 0.06
37019 H 176.82053581620386 105.73693635662165 2.880390503071169 H 0.0 **** 0.06
37020 H 176.96488829804557 105.76518087906969 4.654319451616999 H 0.0 **** 0.06
37021 C 93.56540552238698 46.73045133765282 73.60234991719614 C 0.0 **** -0.24
37022 H 93.1364633244554 46.79355498089741 74.60193976349234 H 0.0 **** 0.06
37023 H 94.50729254887693 47.27867638001187 73.57528511171124 H 0.0 **** 0.06
37024 H 92.8711211125102 47.16450457526035 72.88134619864871 H 0.0 **** 0.06
37025 H 93.74480760651784 45.68546823734455 73.34978592119843 H 0.0 **** 0.06
37026 C 25.20245527058158 24.564300170768078 176.8011669917048 C 0.0 **** -0.24
37027 H 25.26979170881124 24.798893713322443 175.73906011117663 H 0.0 **** 0.06
37028 H 26.014569810907417 23.89034291083007 177.0767481734278 H 0.0 **** 0.06
37029 H 24.245412688498845 24.08348438579344 177.00664222300685 H 0.0 **** 0.06
37030 H 25.278922320028784 25.483722512539416 177.38262011960683 H 0.0 **** 0.06
37031 C 42.272137731868355 127.13177963634867 157.04731378241127 C 0.0 **** -0.24
37032 H 42.198411093569376 126.11633932739507 157.43662179068798 H 0.0 **** 0.06
37033 H 42.574324876755455 127.80648063738393 157.84764423061168 H 0.0 **** 0.06
37034 H 41.302323845806896 127.442226466848 156.65725330143925 H 0.0 **** 0.06
37035 H 43.01223250710018 127.16142860203969 156.24777890504353 H 0.0 **** 0.06
37036 C 64.60455061852643 55.46127392617257 131.24705007470726 C 0.0 **** -0.24
37037 H 65.56851009139422 55.525259429643086 131.7508946243792 H 0.0 **** 0.06
37038 H 63.879662558905395 56.08669657641684 131.76956630488286 H 0.0 **** 0.06
37039 H 64.26104216714883 54.42685079791761 131.24930775331205 H 0.0 **** 0.06
37040 H 64.70874587571784 55.807658424166675 130.21868851490308 H 0.0 **** 0.06
37041 C 43.742063187425515 159.12270871972532 137.7185185176022 C 0.0 **** -0.24
37042 H 44.46194816978061 159.4858587821557 136.98550351722025 H 0.0 **** 0.06
37043 H 43.064048823265125 158.41343518791805 137.2420135491259 H 0.0 **** 0.06
37044 H 43.17048693937568 159.96297828699878 138.11380453111326 H 0.0 **** 0.06
37045 H 44.27192895792757 158.62888908078514 138.53368403305893 H 0.0 **** 0.06
37046 C 133.1127890234087 101.88907077062521 23.29277838366596 C 0.0 **** -0.24
37047 H 133.05664522255182 101.02443827903409 23.953801742732423 H 0.0 **** 0.06
37048 H 133.6735196660179 101.62425590674769 22.395805907874575 H 0.0 **** 0.06
37049 H 133.61426954623556 102.70799559782859 23.807141816413008 H 0.0 **** 0.06
37050 H 132.10530667321075 102.19838141363351 23.01277369092378 H 0.0 **** 0.06
37051 C 98.06674123315764 69.03063225732473 72.70066390748127 C 0.0 **** -0.24
37052 H 98.3229705953504 69.85658090250143 72.0360476657894 H 0.0 **** 0.06
37053 H 98.75746463835969 68.20466030381309 72.53521349754772 H 0.0 **** 0.06
37054 H 97.04812859800688 68.70094462759039 72.49296999406329 H 0.0 **** 0.06
37055 H 98.13699086788438 69.36294182556301 73.73613128477439 H 0.0 **** 0.06
37056 C 126.12362694758382 53.18441471733479 47.20578977446593 C 0.0 **** -0.24
37057 H 125.46049735084729 52.318799911772146 47.229738608469916 H 0.0 **** 0.06
37058 H 125.70183112182612 53.9471675968486 46.550897644887414 H 0.0 **** 0.06
37059 H 127.10047408773592 52.88179039721729 46.82933720813918 H 0.0 **** 0.06
37060 H 126.23087293934374 53.587239664379354 48.21207883837053 H 0.0 **** 0.06
37061 C 183.90158698575522 109.91831218033938 59.780605500674184 C 0.0 **** -0.24
37062 H 183.59893191447455 110.14351254159685 58.757626964438685 H 0.0 **** 0.06
37063 H 184.4932760986945 109.00324048944718 59.79085947146362 H 0.0 **** 0.06
37064 H 183.01439335300591 109.78569390677437 60.40044034509219 H 0.0 **** 0.06
37065 H 184.49847471203793 110.7417418743904 60.172789060780985 H 0.0 **** 0.06
37066 C 28.375346607953333 11.763850709322824 129.55282668551718 C 0.0 **** -0.24
37067 H 27.538223402328 11.12263721004409 129.82991938697847 H 0.0 **** 0.06
37068 H 28.053486636635782 12.468927220191162 128.7856118090736 H 0.0 **** 0.06
37069 H 29.189032623697784 11.151439345556987 129.1645964105025 H 0.0 **** 0.06
37070 H 28.71892753655591 12.312951475861986 130.42952096413006 H 0.0 **** 0.06
37071 C 135.04284571533145 159.7083843103079 110.18380293820316 C 0.0 **** -0.24
37072 H 135.66161444059043 159.49007532964865 109.31269453622305 H 0.0 **** 0.06
37073 H 135.5892372471049 159.44979064155788 111.09059947637182 H 0.0 **** 0.06
37074 H 134.12479079519147 159.12431208133492 110.13215875316929 H 0.0 **** 0.06
37075 H 134.79768890870798 160.77035382219117 110.19726615615646 H 0.0 **** 0.06
37076 C 134.68239446092338 38.387015725371995 127.4519106980793 C 0.0 **** -0.24
37077 H 135.4777790230662 38.1174098780853 126.755512462284 H 0.0 **** 0.06
37078 H 134.98110477415185 38.11876271667211 128.46562656199205 H 0.0 **** 0.06
37079 H 133.77100053054443 37.85214771968732 127.18613698793223 H 0.0 **** 0.06
37080 H 134.50252989539302 39.461168058618824 127.39838604076635 H 0.0 **** 0.06
37081 C 162.3174747489586 102.22147516570634 170.8747614670902 C 0.0 **** -0.24
37082 H 163.40746903244883 102.20985140896435 170.87119541114808 H 0.0 **** 0.06
37083 H 161.9607168923071 102.99967359138286 170.1995508170488 H 0.0 **** 0.06
37084 H 161.95975064722674 102.4234755293782 171.88387476998926 H 0.0 **** 0.06
37085 H 161.94300134387433 101.25327214840756 170.54248003769533 H 0.0 **** 0.06
37086 C 38.17857950029236 140.45674044017449 165.90613574502623 C 0.0 **** -0.24
37087 H 37.972567498712465 140.96105050546572 164.9626232920749 H 0.0 **** 0.06
37088 H 38.5597049523239 139.45491472954888 165.70666892246362 H 0.0 **** 0.06
37089 H 37.26050357713348 140.38687855404788 166.48925088900143 H 0.0 **** 0.06
37090 H 38.921541972999705 141.02411797163546 166.4659998765652 H 0.0 **** 0.06
37091 C 163.57817910141532 139.04305039024769 120.26687554442502 C 0.0 **** -0.24
37092 H 162.5863660794308 139.25802717770193 119.8697505496229 H 0.0 **** 0.06
37093 H 164.33038975182748 139.28027326442714 119.5134348700664 H 0.0 **** 0.06
37094 H 163.6439794228084 137.9856223378132 120.5257126146385 H 0.0 **** 0.06
37095 H 163.75316093912878 139.64666030060607 121.15719390554774 H 0.0 **** 0.06
37096 C 99.3409025163466 113.19924148285442 26.200220237209834 C 0.0 **** -0.24
37097 H 99.55169447577515 113.24263428952644 25.131469008743522 H 0.0 **** 0.06
37098 H 99.49863530265162 112.18266855285354 26.56076872786514 H 0.0 **** 0.06
37099 H 98.3057770578572 113.49249944929225 26.378563846358247 H 0.0 **** 0.06
37100 H 100.00748419605236 113.88119538681637 26.729145682222565 H 0.0 **** 0.06
37101 C 139.85045047801543 131.04705988667763 130.72139430552693 C 0.0 **** -0.24
37102 H 140.18688788132323 130.92586964555232 131.7504803721465 H 0.0 **** 0.06
37103 H 140.31690763267682 130.2865617485457 130.09449982588484 H 0.0 **** 0.06
37104 H 140.13005820944562 132.0370260633964 130.36222606251897 H 0.0 **** 0.06
37105 H 138.76650937488017 130.93707354418558 130.67847494466895 H 0.0 **** 0.06
37106 C 81.70121611320731 133.47382520121909 68.41750627366109 C 0.0 **** -0.24
37107 H 81.11146223470591 132.56164946592503 68.50357097996982 H 0.0 **** 0.06
37108 H 82.72135324920477 133.22089808038118 68.1308855723352 H 0.0 **** 0.06
37109 H 81.7109205340732 133.99169593224315 69.37725578553808 H 0.0 **** 0.06
37110 H 81.25932926196742 134.1211918763005 67.65963374008457 H 0.0 **** 0.06
37111 C 179.42845007845997 120.51655903320204 137.97886656396724 C 0.0 **** -0.24
37112 H 180.34329664764903 119.98467886737751 138.24035769219557 H 0.0 **** 0.06
37113 H 178.57529402376338 120.0183771202116 138.44049619617408 H 0.0 **** 0.06
37114 H 179.30652325518335 120.51976985358948 136.89603560474353 H 0.0 **** 0.06
37115 H 179.48954558691415 121.54263743141928 138.34134527958906 H 0.0 **** 0.06
37116 C 76.8778212017503 140.4397312007199 28.66081740116691 C 0.0 **** -0.24
37117 H 76.67623513667775 139.53052372161005 28.094489598960706 H 0.0 **** 0.06
37118 H 77.77484934354521 140.92077418413055 28.268342467572296 H 0.0 **** 0.06
37119 H 77.02937690688952 140.1885664541416 29.709869098408063 H 0.0 **** 0.06
37120 H 76.03125429472539 141.1199472864094 28.569554583194204 H 0.0 **** 0.06
37121 C 5.821429399407457 81.45697935043785 66.9584389125501 C 0.0 **** -0.24
37122 H 6.309553557312327 80.49286368017977 67.10014331678703 H 0.0 **** 0.06
37123 H 5.792547194520957 81.99214847440516 67.90763498974704 H 0.0 **** 0.06
37124 H 4.803816763994682 81.29858406413376 66.59942518624295 H 0.0 **** 0.06
37125 H 6.378193642564582 82.0420839232728 66.22719575626155 H 0.0 **** 0.06
37126 C 172.63044956733108 18.258344639495903 80.50799091664948 C 0.0 **** -0.24
37127 H 172.7339562615067 18.265726979254964 79.42270743245905 H 0.0 **** 0.06
37128 H 171.67898152181965 17.79962630576992 80.7779250265151 H 0.0 **** 0.06
37129 H 172.6599378977657 19.28181836912441 80.88303271318136 H 0.0 **** 0.06
37130 H 173.44715763131836 17.686343122503445 80.94693229711356 H 0.0 **** 0.06
37131 C 69.41751016598488 131.4814856470657 35.2419655615991 C 0.0 **** -0.24
37132 H 69.7666625949641 131.31882077871717 34.222420036035004 H 0.0 **** 0.06
37133 H 69.55703440351948 132.52845481098166 35.51103045680409 H 0.0 **** 0.06
37134 H 69.98670985679371 130.85099885608116 35.92500251528432 H 0.0 **** 0.06
37135 H 68.36012893128301 131.22625277334544 35.30854225618543 H 0.0 **** 0.06
37136 C 179.61833856789428 184.52835884847826 63.72549948956015 C 0.0 **** -0.24
37137 H 179.4905989700988 185.43112767626522 63.12775505048751 H 0.0 **** 0.06
37138 H 180.14248644163706 184.7752781697904 64.64860035693619 H 0.0 **** 0.06
37139 H 180.19863066413495 183.79821122472896 63.16059249247547 H 0.0 **** 0.06
37140 H 178.64014593365928 184.1102167034211 63.96285508477092 H 0.0 **** 0.06
37141 C 78.27297578974174 131.7198121205808 15.86919560954189 C 0.0 **** -0.24
37142 H 78.94818920585521 131.08290598856217 16.440024627528175 H 0.0 **** 0.06
37143 H 77.80280016007845 131.13363749406716 15.078992109121515 H 0.0 **** 0.06
37144 H 78.83645283415979 132.54185707912688 15.426985153570797 H 0.0 **** 0.06
37145 H 77.50463108844684 132.1202347960982 16.530009082439733 H 0.0 **** 0.06
37146 C 35.553862323567515 151.10164152763338 10.841952822299902 C 0.0 **** -0.24
37147 H 34.80116967253382 150.73590097059912 11.540796149434868 H 0.0 **** 0.06
37148 H 35.82831351092352 150.3018706571883 10.153329202388505 H 0.0 **** 0.06
37149 H 36.43593577584548 151.4253096510266 11.393474087920822 H 0.0 **** 0.06
37150 H 35.148573292149166 151.94233634257438 10.278612428560137 H 0.0 **** 0.06
37151 C 9.934159345705218 53.42450778934818 33.41009768552726 C 0.0 **** -0.24
37152 H 9.712265316726324 52.39358339456217 33.13143600047766 H 0.0 **** 0.06
37153 H 9.547734107173042 54.097920596259314 32.64596873362035 H 0.0 **** 0.06
37154 H 11.01347750195626 53.55317218417133 33.49624972637909 H 0.0 **** 0.06
37155 H 9.464062802750341 53.65052635486836 34.36716623605557 H 0.0 **** 0.06
37156 C 78.57082868606226 70.2847309480079 109.69882092341795 C 0.0 **** -0.24
37157 H 79.64412277604974 70.37185135850063 109.87261457845752 H 0.0 **** 0.06
37158 H 78.394358222482 69.66300907261353 108.8212433248837 H 0.0 **** 0.06
37159 H 78.14927122712783 71.27630716482304 109.53381401522587 H 0.0 **** 0.06
37160 H 78.09819010011967 69.82856669101861 110.56946627912028 H 0.0 **** 0.06
37161 C 86.32325128186407 69.30185079246655 25.942218566116622 C 0.0 **** -0.24
37162 H 86.41978029470236 69.99950194261629 26.774319157158743 H 0.0 **** 0.06
37163 H 86.66952998501624 69.78069623542933 25.025658969628054 H 0.0 **** 0.06
37164 H 85.27852268040569 69.01334016528278 25.828979367436062 H 0.0 **** 0.06
37165 H 86.92607665732494 68.41609659894755 26.13946817459788 H 0.0 **** 0.06
37166 C 88.73973080877958 15.548781433553046 90.05227388771236 C 0.0 **** -0.24
37167 H 89.68087324575207 15.451720522809183 90.59288505995794 H 0.0 **** 0.06
37168 H 88.55613332524472 14.641190270782971 89.47683438624343 H 0.0 **** 0.06
37169 H 88.79526962829276 16.40267693384598 89.37618195055516 H 0.0 **** 0.06
37170 H 87.92730348090386 15.700567378159064 90.76248034470281 H 0.0 **** 0.06
37171 C 132.84407376772674 8.607198214642665 65.58303469004963 C 0.0 **** -0.24
37172 H 133.22363751333984 8.789214176868143 64.57770444061543 H 0.0 **** 0.06
37173 H 131.88233000144544 9.105851131889523 65.70370598314258 H 0.0 **** 0.06
37174 H 133.55189517645118 8.99876178729545 66.31385217286254 H 0.0 **** 0.06
37175 H 132.72007255078046 7.53561634232409 65.7351771247512 H 0.0 **** 0.06
37176 C 58.392492413419006 126.00081582498042 65.91195448554404 C 0.0 **** -0.24
37177 H 57.780361027867485 126.57676468101222 65.21762498487769 H 0.0 **** 0.06
37178 H 59.26859008443847 126.58480196763325 66.19489517296746 H 0.0 **** 0.06
37179 H 58.71204997182275 125.07592416395686 65.4314279472627 H 0.0 **** 0.06
37180 H 57.80791852686281 125.76579820657615 66.80165694367486 H 0.0 **** 0.06
37181 C 91.0878781222139 44.18915993461016 44.64327856238445 C 0.0 **** -0.24
37182 H 91.33757934234241 45.194158346878226 44.98187984496738 H 0.0 **** 0.06
37183 H 90.61710473865146 43.63860417863489 45.457627467463126 H 0.0 **** 0.06
37184 H 91.99724723349125 43.67421105580837 44.333514403205655 H 0.0 **** 0.06
37185 H 90.400213901545 44.25021269230007 43.80064115064715 H 0.0 **** 0.06
37186 C 68.15927565234938 170.67242069050656 128.88751955411516 C 0.0 **** -0.24
37187 H 68.17971379868078 169.7717311477339 129.50168322251307 H 0.0 **** 0.06
37188 H 68.7293830537065 171.46085995149232 129.3800857679368 H 0.0 **** 0.06
37189 H 67.12671714946009 170.9985299627823 128.75563290293508 H 0.0 **** 0.06
37190 H 68.59942898141415 170.4585789448269 127.91391794170694 H 0.0 **** 0.06
37191 C 97.24725182981119 161.52308288451223 83.79315624744542 C 0.0 **** -0.24
37192 H 97.3127924999062 161.4311605137026 82.70872594670779 H 0.0 **** 0.06
37193 H 96.84828013241928 160.59959601842257 84.21196878184142 H 0.0 **** 0.06
37194 H 96.5887765466578 162.3534826563436 84.04915018893973 H 0.0 **** 0.06
37195 H 98.2411273622133 161.7084531789186 84.20178403481019 H 0.0 **** 0.06
37196 C 17.41828616121952 148.841072023322 158.19881415196494 C 0.0 **** -0.24
37197 H 17.48007828166557 149.77564577704564 157.642905930312 H 0.0 **** 0.06
37198 H 16.800706013088345 148.13130650050553 157.64799472769656 H 0.0 **** 0.06
37199 H 16.973757608986368 149.02764986127963 159.17662878196316 H 0.0 **** 0.06
37200 H 18.419781210043887 148.428448923737 158.32744249231834 H 0.0 **** 0.06
37201 C 100.08899886733042 78.81020918441976 70.27034588683276 C 0.0 **** -0.24
37202 H 99.28564551102846 79.50839219614932 70.50440403845943 H 0.0 **** 0.06
37203 H 99.69367660372143 77.79520920480593 70.24647776789732 H 0.0 **** 0.06
37204 H 100.86387563055808 78.88088083084745 71.03391834086074 H 0.0 **** 0.06
37205 H 100.51374080989427 79.0580566941025 69.29807111398222 H 0.0 **** 0.06
37206 C 16.1761349462705 88.0791261348636 82.19824234428246 C 0.0 **** -0.24
37207 H 16.669592217022526 87.71908896725603 83.10085550425924 H 0.0 **** 0.06
37208 H 16.461947183257287 89.11475022363152 82.01611475922536 H 0.0 **** 0.06
37209 H 15.095126585525733 88.01601984008278 82.32472512604907 H 0.0 **** 0.06
37210 H 16.47888694026831 87.4637015456006 81.35013079044037 H 0.0 **** 0.06
37211 C 96.02200827855809 143.07165338990893 119.77739590907242 C 0.0 **** -0.24
37212 H 95.14125059978734 143.25691723646477 120.39316421735123 H 0.0 **** 0.06
37213 H 96.41629890764007 142.07961571252054 119.99778309443025 H 0.0 **** 0.06
37214 H 96.78076165753056 143.82265788784335 119.99528325300457 H 0.0 **** 0.06
37215 H 95.7462256485001 143.1281281501887 118.72388087298157 H 0.0 **** 0.06
37216 C 149.8286847881065 172.3011988612102 78.38150695533902 C 0.0 **** -0.24
37217 H 150.06058734133507 171.92478132033537 79.37790718035217 H 0.0 **** 0.06
37218 H 148.94762574829105 171.78704261199056 77.99575999734547 H 0.0 **** 0.06
37219 H 150.6748434713385 172.12017251062514 77.71847353763764 H 0.0 **** 0.06
37220 H 149.63140370997812 173.37200552050922 78.43442806547597 H 0.0 **** 0.06
37221 C 39.22236412833972 122.0472876950807 77.72999279358937 C 0.0 **** -0.24
37222 H 38.50384757693696 121.52920510379384 78.36428982980915 H 0.0 **** 0.06
37223 H 39.79896699777312 122.74980994684303 78.33248096954276 H 0.0 **** 0.06
37224 H 38.69177928812704 122.5899518779993 76.94806590561365 H 0.0 **** 0.06
37225 H 39.8953209837495 121.32033645962831 77.27601006415179 H 0.0 **** 0.06
37226 C 122.62958332083828 75.28777543463804 12.21319711848625 C 0.0 **** -0.24
37227 H 121.95886355200925 74.89180974271 12.975709102100268 H 0.0 **** 0.06
37228 H 122.99362020598339 76.26703343841763 12.523257208241269 H 0.0 **** 0.06
37229 H 122.09093838789381 75.3812780829054 11.269372297156053 H 0.0 **** 0.06
37230 H 123.47233494353891 74.60986758984018 12.08480329290316 H 0.0 **** 0.06
37231 C 45.718540383672575 131.01153250541705 102.75122657414737 C 0.0 **** -0.24
37232 H 45.11259149292431 131.50623479393022 101.99192758224781 H 0.0 **** 0.06
37233 H 45.11147399908867 130.8297456965292 103.63870916621012 H 0.0 **** 0.06
37234 H 46.56305210042714 131.64977800304735 103.01346890206075 H 0.0 **** 0.06
37235 H 46.08659304194396 130.06333371230858 102.36095023359347 H 0.0 **** 0.06
37236 C 97.42663662590782 166.56186987023813 139.13297541786318 C 0.0 **** -0.24
37237 H 97.67405291809412 165.99090516707815 138.23760350116754 H 0.0 **** 0.06
37238 H 98.34419493339904 166.83811755605558 139.65223000422827 H 0.0 **** 0.06
37239 H 96.8040612324139 165.9548498332507 139.79024698789596 H 0.0 **** 0.06
37240 H 96.8834261404999 167.4631206706108 138.84897414364355 H 0.0 **** 0.06
37241 C 77.93891024571083 12.249728385672718 93.09764793248301 C 0.0 **** -0.24
37242 H 77.13388466501353 11.789417664531136 92.5237766518204 H 0.0 **** 0.06
37243 H 78.77691591907953 11.556164874125756 93.16831273565778 H 0.0 **** 0.06
37244 H 77.57951056155531 12.489573350820166 94.09830003005835 H 0.0 **** 0.06
37245 H 78.26329891337727 13.163343586967791 92.59936325270452 H 0.0 **** 0.06
37246 C 116.52851741949634 130.7400290593854 169.39199458841188 C 0.0 **** -0.24
37247 H 117.58035883428828 130.45780050904796 169.34994653202023 H 0.0 **** 0.06
37248 H 115.90838390070117 129.85455467606113 169.2526500613803 H 0.0 **** 0.06
37249 H 116.31471344509582 131.4617366551202 168.60262179366055 H 0.0 **** 0.06
37250 H 116.31165294184093 131.18843794775182 170.36131270952376 H 0.0 **** 0.06
37251 C 29.63465737536825 136.4628066114238 171.55637716640777 C 0.0 **** -0.24
37252 H 28.60178146210029 136.12337404364433 171.47638184495983 H 0.0 **** 0.06
37253 H 29.731709358827175 137.44354763184174 171.08919587194148 H 0.0 **** 0.06
37254 H 30.29054633514596 135.75356362308253 171.05248591331872 H 0.0 **** 0.06
37255 H 29.913334799054383 136.5322916603186 172.60845231372693 H 0.0 **** 0.06
37256 C 66.18677926114167 145.0574801163339 18.963543356591018 C 0.0 **** -0.24
37257 H 65.86469759425033 144.85062375272454 19.983423826460637 H 0.0 **** 0.06
37258 H 67.26879019961386 145.18884282888607 18.943256963539625 H 0.0 **** 0.06
37259 H 65.70363257398492 145.96850997561236 18.607301455501386 H 0.0 **** 0.06
37260 H 65.90979069895099 144.2236173196813 18.31841426916774 H 0.0 **** 0.06
37261 C 169.36821048274277 89.42464445046944 138.32589718549542 C 0.0 **** -0.24
37262 H 169.5682208929461 88.91791610185511 139.2696326159773 H 0.0 **** 0.06
37263 H 169.0367436348336 90.44402173007317 138.52486971087387 H 0.0 **** 0.06
37264 H 168.58849716474015 88.88864981865818 137.78454031173345 H 0.0 **** 0.06
37265 H 170.27772448151444 89.44800405923154 137.72604890049274 H 0.0 **** 0.06
37266 C 73.34846787314723 38.979611999295685 8.139820784952576 C 0.0 **** -0.24
37267 H 73.89331872730071 39.9019205380111 8.34081547325075 H 0.0 **** 0.06
37268 H 72.66274023807443 39.13738821723376 7.307650353525325 H 0.0 **** 0.06
37269 H 72.78475792981436 38.69046953097629 9.027315077142944 H 0.0 **** 0.06
37270 H 74.05441711376886 38.18883812995284 7.884956637158467 H 0.0 **** 0.06
37271 C 20.975534924328997 59.48022592901788 111.12985636844508 C 0.0 **** -0.24
37272 H 20.957670712459333 58.39867298334045 110.99407540882936 H 0.0 **** 0.06
37273 H 20.245629373954188 59.9416431735423 110.46282455591205 H 0.0 **** 0.06
37274 H 21.97101128373569 59.8592064789205 110.89740005628886 H 0.0 **** 0.06
37275 H 20.726400212373733 59.72041360343604 112.16338630784333 H 0.0 **** 0.06
37276 C 6.949016053246055 105.6991848590573 123.80559895331113 C 0.0 **** -0.24
37277 H 7.522994453229984 105.63877985747133 122.88139639201414 H 0.0 **** 0.06
37278 H 7.447557733840995 106.37541765102405 124.49983865227584 H 0.0 **** 0.06
37279 H 6.875002496067168 104.70795600463582 124.25298549351136 H 0.0 **** 0.06
37280 H 5.949173175599697 106.07458073992969 123.58771247970746 H 0.0 **** 0.06
37281 C 46.29492259889028 49.069500506613906 185.17056687297958 C 0.0 **** -0.24
37282 H 45.44071119682913 48.39670326788328 185.24049610614202 H 0.0 **** 0.06
37283 H 46.486916622097525 49.30499905119342 184.1234579435951 H 0.0 **** 0.06
37284 H 47.17314310719141 48.58733330621175 185.60142291018053 H 0.0 **** 0.06
37285 H 46.07961249353218 49.98750248379491 185.7162767423922 H 0.0 **** 0.06
37286 C 153.41079757435108 145.21317823667317 166.0182553859283 C 0.0 **** -0.24
37287 H 153.93322912137882 146.1363938499803 165.76451415670806 H 0.0 **** 0.06
37288 H 153.2063903309442 145.1949095294146 167.0894333972312 H 0.0 **** 0.06
37289 H 154.0329939351743 144.35941269864972 165.75120026127624 H 0.0 **** 0.06
37290 H 152.4714799708791 145.1650274857521 165.46786434768723 H 0.0 **** 0.06
37291 C 95.6962482203869 71.60078273508621 174.72562615369424 C 0.0 **** -0.24
37292 H 96.26895831479237 72.35167960748424 175.27109423667883 H 0.0 **** 0.06
37293 H 95.01569154504153 71.09521328088364 175.41100525443773 H 0.0 **** 0.06
37294 H 96.37782797295279 70.8724768972608 174.2858500542345 H 0.0 **** 0.06
37295 H 95.12317561391575 72.08544949103417 173.9358639994199 H 0.0 **** 0.06
37296 C 147.59952847412166 77.28350325219884 167.58613785397085 C 0.0 **** -0.24
37297 H 148.58836688965943 77.3562894534457 167.13307149385545 H 0.0 **** 0.06
37298 H 147.552777300206 76.39493429710183 168.21559944894258 H 0.0 **** 0.06
37299 H 146.84498959378465 77.21536115872517 166.80330321992838 H 0.0 **** 0.06
37300 H 147.41258742163123 78.16927080147934 168.19368889568145 H 0.0 **** 0.06
37301 C 33.97644951857555 33.230586325609636 120.57817213556773 C 0.0 **** -0.24
37302 H 34.935303171831436 32.75952888689994 120.79119769515152 H 0.0 **** 0.06
37303 H 33.72143367408847 33.07678566555512 119.52951935908068 H 0.0 **** 0.06
37304 H 34.04392220478667 34.298948073521956 120.78238027515131 H 0.0 **** 0.06
37305 H 33.20576150074152 32.787531034777146 121.20894971328623 H 0.0 **** 0.06
37306 C 121.47815042551245 149.05145826323144 91.8329573281693 C 0.0 **** -0.24
37307 H 121.60136493455123 150.0485145893846 91.40986486119442 H 0.0 **** 0.06
37308 H 120.4428390602957 148.9164965888966 92.14778921021878 H 0.0 **** 0.06
37309 H 122.13808252029038 148.93868849118712 92.69350482163492 H 0.0 **** 0.06
37310 H 121.7302244651729 148.30454679869763 91.08107949753736 H 0.0 **** 0.06
37311 C 44.655779527801926 111.21475433289669 93.42128342485717 C 0.0 **** -0.24
37312 H 43.71425073374802 111.01479540732402 93.93405857374023 H 0.0 **** 0.06
37313 H 45.279796926635285 111.85509491189208 94.04470751149745 H 0.0 **** 0.06
37314 H 44.453936046232926 111.71363231008087 92.47293572605008 H 0.0 **** 0.06
37315 H 45.17267165930163 110.27327360254554 93.23347517126427 H 0.0 **** 0.06
37316 C 64.40661331403909 1.5255444240108034 33.413018599620045 C 0.0 **** -0.24
37317 H 64.19170902073519 2.3290143306211633 34.11738186634432 H 0.0 **** 0.06
37318 H 63.97475631813137 0.5954003001521073 33.78177027201821 H 0.0 **** 0.06
37319 H 65.48646317379627 1.411020578750339 33.31281899691521 H 0.0 **** 0.06
37320 H 63.974695412517406 1.7684284222428062 32.442708532217154 H 0.0 **** 0.06
37321 C 47.64074758537208 75.54259975115463 144.9968120374663 C 0.0 **** -0.24
37322 H 48.58567180958897 75.12699326744655 144.6473727509984 H 0.0 **** 0.06
37323 H 47.83175474749714 76.25017807432812 145.80429118288842 H 0.0 **** 0.06
37324 H 47.00295674779562 74.73728033999157 145.3626287707388 H 0.0 **** 0.06
37325 H 47.143375599023784 76.05584936176689 144.17358769531035 H 0.0 **** 0.06
37326 C 129.8009280527395 163.9950237160358 3.671053193853055 C 0.0 **** -0.24
37327 H 129.5989697405218 163.47549191168196 2.733605092678829 H 0.0 **** 0.06
37328 H 130.42797478647793 163.36865446991033 4.305615505012952 H 0.0 **** 0.06
37329 H 128.85958549118624 164.2023028908713 4.180057997903816 H 0.0 **** 0.06
37330 H 130.3157097762625 164.93257111422815 3.4623500484382532 H 0.0 **** 0.06
37331 C 38.366740752625674 91.59685352417902 113.82531831046357 C 0.0 **** -0.24
37332 H 38.12715275122116 91.74301868337692 112.7715969414141 H 0.0 **** 0.06
37333 H 38.12512680920116 90.57340791057736 114.11245442035 H 0.0 **** 0.06
37334 H 37.782741070681766 92.29163374780616 114.42963627077249 H 0.0 **** 0.06
37335 H 39.429271935898555 91.77939533132191 113.9856190705353 H 0.0 **** 0.06
37336 C 120.52440947909717 95.20373167212591 149.34552854832188 C 0.0 **** -0.24
37337 H 120.39165943518474 95.00070276774619 148.28312041605182 H 0.0 **** 0.06
37338 H 120.61312156726369 96.27911282010524 149.5008537670312 H 0.0 **** 0.06
37339 H 121.42821886739868 94.7093346391826 149.6992098799645 H 0.0 **** 0.06
37340 H 119.66359615937857 94.82683212321894 149.89698072066253 H 0.0 **** 0.06
37341 C 168.91515351401736 183.45284538734307 16.56385606374584 C 0.0 **** -0.24
37342 H 169.90168985299672 183.90780830088426 16.476659985121884 H 0.0 **** 0.06
37343 H 168.8606373482453 182.5783230092852 15.915413341093242 H 0.0 **** 0.06
37344 H 168.15424439676224 184.17441932500435 16.266098215551857 H 0.0 **** 0.06
37345 H 168.74489279922994 183.15069104007296 17.597760039391183 H 0.0 **** 0.06
37346 C 38.75164413902064 59.26876372549077 112.84170712330531 C 0.0 **** -0.24
37347 H 39.08351543067802 59.812370307226104 113.72689903510015 H 0.0 **** 0.06
37348 H 38.428501019324315 58.268393450858895 113.13106023017922 H 0.0 **** 0.06
37349 H 39.57423380835269 59.19438003219258 112.13185177511038 H 0.0 **** 0.06
37350 H 37.91998018156298 59.800200497872936 112.38014742190246 H 0.0 **** 0.06
37351 C 67.34644229634033 121.97770923248657 161.42810061395446 C 0.0 **** -0.24
37352 H 67.64764163626161 121.09628410289957 160.86149398150962 H 0.0 **** 0.06
37353 H 68.21255131754471 122.62014524277794 161.5873504253763 H 0.0 **** 0.06
37354 H 66.94135160482399 121.66794741759543 162.39166250755449 H 0.0 **** 0.06
37355 H 66.58500120138451 122.52367272356912 160.87268757368975 H 0.0 **** 0.06
37356 C 19.87397781857208 116.84666685799044 176.20119333899697 C 0.0 **** -0.24
37357 H 20.489894111764897 117.62598700512507 176.64983861997172 H 0.0 **** 0.06
37358 H 19.808764592419152 115.999007723533 176.8838818539324 H 0.0 **** 0.06
37359 H 20.32302250145012 116.52402041167471 175.2619928810602 H 0.0 **** 0.06
37360 H 18.875198334698574 117.23901067324823 176.0105490892746 H 0.0 **** 0.06
37361 C 63.89695967185979 108.64723853541773 12.674269030791493 C 0.0 **** -0.24
37362 H 63.48410680321628 108.18666840982922 13.571960536492242 H 0.0 **** 0.06
37363 H 63.08767252245799 109.0609814295965 12.073202084888578 H 0.0 **** 0.06
37364 H 64.43368114388355 107.89634587856023 12.094512495060513 H 0.0 **** 0.06
37365 H 64.58349264816304 109.44547781541405 12.958099810566665 H 0.0 **** 0.06
37366 C 84.48395654242984 32.30187869154645 26.227658203967223 C 0.0 **** -0.24
37367 H 84.60283792912355 33.21681970907309 26.808111919093506 H 0.0 **** 0.06
37368 H 84.34647618776631 31.458759163533387 26.904740162812686 H 0.0 **** 0.06
37369 H 85.37408750187575 32.13879644605379 25.620434679822267 H 0.0 **** 0.06
37370 H 83.61304690499725 32.393150813031866 25.579493766841097 H 0.0 **** 0.06
37371 C 177.23619631797527 3.3677189242716707 96.92845701169074 C 0.0 **** -0.24
37372 H 176.93029924312637 4.214934293283825 96.31460567563903 H 0.0 **** 0.06
37373 H 176.354872760855 2.90689283739664 97.37583101244724 H 0.0 **** 0.06
37374 H 177.90515701542702 3.7141628543759495 97.7162149387164 H 0.0 **** 0.06
37375 H 177.75345418105792 2.637036095250103 96.30778621758031 H 0.0 **** 0.06
37376 C 146.19170250816404 185.39094127575692 118.0326328746889 C 0.0 **** -0.24
37377 H 146.6465106106949 185.04769712846792 117.10366603072522 H 0.0 **** 0.06
37378 H 146.5747819259621 186.38112980875286 118.2801691382448 H 0.0 **** 0.06
37379 H 146.43568105374354 184.69520581534206 118.83473073204861 H 0.0 **** 0.06
37380 H 145.1096608004444 185.438811029764 117.90993571062329 H 0.0 **** 0.06
37381 C 127.2562817159075 50.02242734483876 165.9538833658567 C 0.0 **** -0.24
37382 H 126.72522007314274 49.85330785900592 165.01717503716492 H 0.0 **** 0.06
37383 H 126.66583044338955 49.62874182263742 166.78159852411852 H 0.0 **** 0.06
37384 H 127.41353082384359 51.09177977797344 166.0945050317082 H 0.0 **** 0.06
37385 H 128.22038680199847 49.51355372765384 165.92150401343196 H 0.0 **** 0.06
37386 C 122.78096231874669 109.1997398088297 122.8058985976536 C 0.0 **** -0.24
37387 H 122.78215260879374 108.18287969773515 122.41294762276647 H 0.0 **** 0.06
37388 H 123.03711002999619 109.89792621852534 122.00844485419282 H 0.0 **** 0.06
37389 H 123.51356635897987 109.2798166920387 123.6094640240064 H 0.0 **** 0.06
37390 H 121.79018174786783 109.43789350009534 123.19305495710967 H 0.0 **** 0.06
37391 C 6.261890207160661 57.776013095539355 181.12623955126526 C 0.0 **** -0.24
37392 H 6.795268667610344 57.39385623309943 180.2552504929256 H 0.0 **** 0.06
37393 H 6.975136494346572 58.00254144484852 181.918675038363 H 0.0 **** 0.06
37394 H 5.554429376395973 57.02458133287888 181.47703984334404 H 0.0 **** 0.06
37395 H 5.721917991694113 58.68229146671136 180.85181672683782 H 0.0 **** 0.06
37396 C 77.70597851396376 139.20110248850483 177.534907468381 C 0.0 **** -0.24
37397 H 78.24678820398672 138.8238955720576 176.66689699202556 H 0.0 **** 0.06
37398 H 76.70879748812372 139.5198875695849 177.23066998189026 H 0.0 **** 0.06
37399 H 78.24514136600719 140.04796764450288 177.9591741112498 H 0.0 **** 0.06
37400 H 77.62305543947679 138.41090782181004 178.28193192982772 H 0.0 **** 0.06
37401 C 8.434738727974029 74.88498578095997 54.951249970507206 C 0.0 **** -0.24
37402 H 7.743679796122642 74.0719264195745 55.1784446970436 H 0.0 **** 0.06
37403 H 8.90890031480231 75.22707363149115 55.870890684438734 H 0.0 **** 0.06
37404 H 7.886547997110398 75.70932695077448 54.49500012188628 H 0.0 **** 0.06
37405 H 9.197694676996363 74.52893304961437 54.258371873967576 H 0.0 **** 0.06
37406 C 75.35253080776444 77.03925711468031 107.99879964352584 C 0.0 **** -0.24
37407 H 74.93572049108033 76.1005978285598 108.36403829209559 H 0.0 **** 0.06
37408 H 74.54248001860059 77.70910255755386 107.70940341377786 H 0.0 **** 0.06
37409 H 75.98802837888918 76.84207302476923 107.13486176361607 H 0.0 **** 0.06
37410 H 75.94559927215083 77.5043497744715 108.78637185148773 H 0.0 **** 0.06
37411 C 126.9687281419559 66.85094281181011 79.75004160568196 C 0.0 **** -0.24
37412 H 126.40831755219496 67.437309170589 79.021969614569 H 0.0 **** 0.06
37413 H 126.99431141478244 65.80736364429721 79.43361400982414 H 0.0 **** 0.06
37414 H 126.48682818062032 66.92453827861378 80.72424408127762 H 0.0 **** 0.06
37415 H 127.98705471218248 67.23445381141752 79.81848639288492 H 0.0 **** 0.06
37416 C 91.81577452441724 129.8831907573466 132.3069890135867 C 0.0 **** -0.24
37417 H 91.3711628110292 129.46705708573478 131.40324538707125 H 0.0 **** 0.06
37418 H 91.10520302973862 129.80622408540876 133.13063922671904 H 0.0 **** 0.06
37419 H 92.06671485370191 130.9303097281433 132.13936991829775 H 0.0 **** 0.06
37420 H 92.72058759487862 129.32845633546873 132.55510468997858 H 0.0 **** 0.06
37421 C 160.26644668207618 9.510615643521703 33.68927522582709 C 0.0 **** -0.24
37422 H 159.9926289977126 9.633552339889263 32.64075157708356 H 0.0 **** 0.06
37423 H 160.01410513720643 10.4174392398117 34.23878143117312 H 0.0 **** 0.06
37424 H 161.33743171619673 9.324347428565375 33.765495679012446 H 0.0 **** 0.06
37425 H 159.7193582066675 8.666497630834215 34.11020439647109 H 0.0 **** 0.06
37426 C 31.75286443145177 161.101312249393 109.45345745773047 C 0.0 **** -0.24
37427 H 31.05832840850644 161.90899504663577 109.68422914632619 H 0.0 **** 0.06
37428 H 32.4222816653226 160.94580095916447 110.29992788631027 H 0.0 **** 0.06
37429 H 32.33594658580364 161.36506493902385 108.57164338458837 H 0.0 **** 0.06
37430 H 31.193520781966754 160.18642647289738 109.25903767852331 H 0.0 **** 0.06
37431 C 55.13331437849047 114.64967040715867 72.37755343141792 C 0.0 **** -0.24
37432 H 55.33971828668798 115.04120680599577 73.37387167848688 H 0.0 **** 0.06
37433 H 55.64828833819051 115.2602207008478 71.63463111552724 H 0.0 **** 0.06
37434 H 54.05968537772864 114.67891252273263 72.19139212285899 H 0.0 **** 0.06
37435 H 55.486531955805646 113.621426806771 72.31220237576181 H 0.0 **** 0.06
37436 C 164.4077232158423 122.03865201402546 11.893365174081005 C 0.0 **** -0.24
37437 H 164.57279678094483 122.36513494867965 10.866479113959457 H 0.0 **** 0.06
37438 H 165.3531392920527 121.71159940507512 12.327069469807036 H 0.0 **** 0.06
37439 H 163.6982966117193 121.2104858634522 11.9014343141138 H 0.0 **** 0.06
37440 H 164.00685354525845 122.86644201387598 12.478216936210977 H 0.0 **** 0.06
37441 C 156.82654098570526 108.34809096980139 104.27664804867207 C 0.0 **** -0.24
37442 H 155.9912174573482 108.63701042991097 104.9140196015749 H 0.0 **** 0.06
37443 H 157.31629536924498 109.24324021773988 103.89129124098314 H 0.0 **** 0.06
37444 H 156.45687551877222 107.74862427026984 103.44437616013595 H 0.0 **** 0.06
37445 H 157.54109744580774 107.76322412671242 104.85621962820706 H 0.0 **** 0.06
37446 C 78.72855893476031 168.2169810844842 142.35122087295974 C 0.0 **** -0.24
37447 H 77.84526048429291 167.73245450861984 142.76874241452364 H 0.0 **** 0.06
37448 H 78.43602464067618 169.144179420778 141.8596303255306 H 0.0 **** 0.06
37449 H 79.19804421113741 167.55226846069317 141.6251670879896 H 0.0 **** 0.06
37450 H 79.43421497689451 168.43619720326856 143.1520805291417 H 0.0 **** 0.06
37451 C 1.2938131513380426 67.78146229624036 22.546185436946303 C 0.0 **** -0.24
37452 H 0.912828860154832 66.76916024175722 22.677467041865583 H 0.0 **** 0.06
37453 H 2.330413982986556 67.8257980534957 22.882523744976538 H 0.0 **** 0.06
37454 H 0.6915043562763117 68.47516777236422 23.131518807206078 H 0.0 **** 0.06
37455 H 1.2421818838303125 68.0552691105961 21.491823813113 H 0.0 **** 0.06
37456 C 146.6947032816443 8.573395490898527 174.38040032591886 C 0.0 **** -0.24
37457 H 147.6475946995468 8.640743814102386 173.8552417613978 H 0.0 **** 0.06
37458 H 146.22597572112483 9.55687262814697 174.40990541632024 H 0.0 **** 0.06
37459 H 146.86587025048303 8.221093633114407 175.39777372931252 H 0.0 **** 0.06
37460 H 146.04157658158493 7.874634709912428 173.8583876546422 H 0.0 **** 0.06
37461 C 122.37655131467419 139.83966428773158 159.417855792618 C 0.0 **** -0.24
37462 H 122.27935138242457 138.78100222198776 159.65860705167017 H 0.0 **** 0.06
37463 H 122.70744452811361 140.3837554897084 160.3022571711239 H 0.0 **** 0.06
37464 H 121.41281801709967 140.22809218215946 159.08961769640277 H 0.0 **** 0.06
37465 H 123.10952339108785 139.96397665392095 158.61991546504498 H 0.0 **** 0.06
37466 C 176.5242299641525 154.00815256131915 1.8052228123061766 C 0.0 **** -0.24
37467 H 176.3030425154101 153.67857125586983 2.8207175959114323 H 0.0 **** 0.06
37468 H 177.55899852759032 153.76578120954053 1.5632176263071784 H 0.0 **** 0.06
37469 H 176.37516334909864 155.08472848402056 1.7323616313896366 H 0.0 **** 0.06
37470 H 175.85913471234437 153.50097740219417 1.1063694485345437 H 0.0 **** 0.06
37471 C 66.34925954151274 167.97230499255318 86.73297914907187 C 0.0 **** -0.24
37472 H 66.37115006539138 169.04323956405008 86.5321526017641 H 0.0 **** 0.06
37473 H 67.19982758261156 167.70251809717087 87.35812583265403 H 0.0 **** 0.06
37474 H 66.40055105538823 167.4247914392013 85.7922340000253 H 0.0 **** 0.06
37475 H 65.42323671456217 167.71952823356804 87.24971990181336 H 0.0 **** 0.06
37476 C 7.632135100735667 89.09046122404835 180.43490501705776 C 0.0 **** -0.24
37477 H 7.7719901259604 90.08829463548285 180.01994067947314 H 0.0 **** 0.06
37478 H 6.948357005941347 89.14224605155029 181.2835794368276 H 0.0 **** 0.06
37479 H 8.593277027480212 88.6966173383072 180.7659496716143 H 0.0 **** 0.06
37480 H 7.21487029462628 88.43474450254813 179.6718807835456 H 0.0 **** 0.06
37481 C 96.01147586291238 110.70562113222381 17.00394561562733 C 0.0 **** -0.24
37482 H 95.73998577190669 111.61025094407121 17.547736374124604 H 0.0 **** 0.06
37483 H 96.92346592973819 110.28644999368531 17.429486504454978 H 0.0 **** 0.06
37484 H 96.17694549653227 110.94953823002764 15.95495009974507 H 0.0 **** 0.06
37485 H 95.20403543380603 109.97772311867966 17.08598712360844 H 0.0 **** 0.06
37486 C 113.8431159210574 101.98548280674099 153.84674282951298 C 0.0 **** -0.24
37487 H 112.96324502027693 102.02939632681846 154.48826691547697 H 0.0 **** 0.06
37488 H 114.62558594903913 101.40976858897956 154.34257061596693 H 0.0 **** 0.06
37489 H 114.20229781854232 102.99550068652077 153.65308443332816 H 0.0 **** 0.06
37490 H 113.5804650390703 101.5061742098372 152.9032778514703 H 0.0 **** 0.06
37491 C 51.84468222849807 82.20725975864785 162.7449904244864 C 0.0 **** -0.24
37492 H 51.22284194541902 82.58896858759522 161.93521243263194 H 0.0 **** 0.06
37493 H 52.257236785713644 81.23905982354745 162.46073878621633 H 0.0 **** 0.06
37494 H 51.239000391814926 82.09453084561561 163.64509825629796 H 0.0 **** 0.06
37495 H 52.657352866286885 82.90665175157478 162.93974571543833 H 0.0 **** 0.06
37496 C 123.92027742734676 49.4258806534138 33.11505908337813 C 0.0 **** -0.24
37497 H 123.46496579150364 48.53842286991744 32.67558626495969 H 0.0 **** 0.06
37498 H 124.12648057404182 49.24331791363363 34.16959711804043 H 0.0 **** 0.06
37499 H 123.23614661182056 50.269329734041605 33.01928303460335 H 0.0 **** 0.06
37500 H 124.85116204009962 49.65185480707498 32.59608427257223 H 0.0 **** 0.06
@<TRIPOS>BOND
1 1 2 28
2 1 3 28
3 1 4 28
4 1 5 28
5 6 7 28
6 6 8 28
7 6 9 28
8 6 10 28
9 11 12 28
10 11 13 28
11 11 14 28
12 11 15 28
13 16 17 28
14 16 18 28
15 16 19 28
16 16 20 28
17 21 22 28
18 21 23 28
19 21 24 28
20 21 25 28
21 26 27 28
22 26 28 28
23 26 29 28
24 26 30 28
25 31 32 28
26 31 33 28
27 31 34 28
28 31 35 28
29 36 37 28
30 36 38 28
31 36 39 28
32 36 40 28
33 41 42 28
34 41 43 28
35 41 44 28
36 41 45 28
37 46 47 28
38 46 48 28
39 46 49 28
40 46 50 28
41 51 52 28
42 51 53 28
43 51 54 28
44 51 55 28
45 56 57 28
46 56 58 28
47 56 59 28
48 56 60 28
49 61 62 28
50 61 63 28
51 61 64 28
52 61 65 28
53 66 67 28
54 66 68 28
55 66 69 28
56 66 70 28
57 71 72 28
58 71 73 28
59 71 74 28
60 71 75 28
61 76 77 28
62 76 78 28
63 76 79 28
64 76 80 28
65 81 82 28
66 81 83 28
67 81 84 28
68 81 85 28
69 86 87 28
70 86 88 28
71 86 89 28
72 86 90 28
73 91 92 28
74 91 93 28
75 91 94 28
76 91 95 28
77 96 97 28
78 96 98 28
79 96 99 28
80 96 100 28
81 101 102 28
82 101 103 28
83 101 104 28
84 101 105 28
85 106 107 28
86 106 108 28
87 106 109 28
88 106 110 28
89 111 112 28
90 111 113 28
91 111 114 28
92 111 115 28
93 116 117 28
94 116 118 28
95 116 119 28
96 116 120 28
97 121 122 28
98 121 123 28
99 121 124 28
100 121 125 28
101 126 127 28
102 126 128 28
103 126 129 28
104 126 130 28
105 131 132 28
106 131 133 28
107 131 134 28
108 131 135 28
109 136 137 28
110 136 138 28
111 136 139 28
112 136 140 28
113 141 142 28
114 141 143 28
115 141 144 28
116 141 145 28
117 146 147 28
118 146 148 28
119 146 149 28
120 146 150 28
121 151 152 28
122 151 153 28
123 151 154 28
124 151 155 28
125 156 157 28
126 156 158 28
127 156 159 28
128 156 160 28
129 161 162 28
130 161 163 28
131 161 164 28
132 161 165 28
133 166 167 28
134 166 168 28
135 166 169 28
136 166 170 28
137 171 172 28
138 171 173 28
139 171 174 28
140 171 175 28
141 176 177 28
142 176 178 28
143 176 179 28
144 176 180 28
145 181 182 28
146 181 183 28
147 181 184 28
148 181 185 28
149 186 187 28
150 186 188 28
151 186 189 28
152 186 190 28
153 191 192 28
154 191 193 28
155 191 194 28
156 191 195 28
157 196 197 28
158 196 198 28
159 196 199 28
160 196 200 28
161 201 202 28
162 201 203 28
163 201 204 28
164 201 205 28
165 206 207 28
166 206 208 28
167 206 209 28
168 206 210 28
169 211 212 28
170 211 213 28
171 211 214 28
172 211 215 28
173 216 217 28
174 216 218 28
175 216 219 28
176 216 220 28
177 221 222 28
178 221 223 28
179 221 224 28
180 221 225 28
181 226 227 28
182 226 228 28
183 226 229 28
184 226 230 28
185 231 232 28
186 231 233 28
187 231 234 28
188 231 235 28
189 236 237 28
190 236 238 28
191 236 239 28
192 236 240 28
193 241 242 28
194 241 243 28
195 241 244 28
196 241 245 28
197 246 247 28
198 246 248 28
199 246 249 28
200 246 250 28
201 251 252 28
202 251 253 28
203 251 254 28
204 251 255 28
205 256 257 28
206 256 258 28
207 256 259 28
208 256 260 28
209 261 262 28
210 261 263 28
211 261 264 28
212 261 265 28
213 266 267 28
214 266 268 28
215 266 269 28
216 266 270 28
217 271 272 28
218 271 273 28
219 271 274 28
220 271 275 28
221 276 277 28
222 276 278 28
223 276 279 28
224 276 280 28
225 281 282 28
226 281 283 28
227 281 284 28
228 281 285 28
229 286 287 28
230 286 288 28
231 286 289 28
232 286 290 28
233 291 292 28
234 291 293 28
235 291 294 28
236 291 295 28
237 296 297 28
238 296 298 28
239 296 299 28
240 296 300 28
241 301 302 28
242 301 303 28
243 301 304 28
244 301 305 28
245 306 307 28
246 306 308 28
247 306 309 28
248 306 310 28
249 311 312 28
250 311 313 28
251 311 314 28
252 311 315 28
253 316 317 28
254 316 318 28
255 316 319 28
256 316 320 28
257 321 322 28
258 321 323 28
259 321 324 28
260 321 325 28
261 326 327 28
262 326 328 28
263 326 329 28
264 326 330 28
265 331 332 28
266 331 333 28
267 331 334 28
268 331 335 28
269 336 337 28
270 336 338 28
271 336 339 28
272 336 340 28
273 341 342 28
274 341 343 28
275 341 344 28
276 341 345 28
277 346 347 28
278 346 348 28
279 346 349 28
280 346 350 28
281 351 352 28
282 351 353 28
283 351 354 28
284 351 355 28
285 356 357 28
286 356 358 28
287 356 359 28
288 356 360 28
289 361 362 28
290 361 363 28
291 361 364 28
292 361 365 28
293 366 367 28
294 366 368 28
295 366 369 28
296 366 370 28
297 371 372 28
298 371 373 28
299 371 374 28
300 371 375 28
301 376 377 28
302 376 378 28
303 376 379 28
304 376 380 28
305 381 382 28
306 381 383 28
307 381 384 28
308 381 385 28
309 386 387 28
310 386 388 28
311 386 389 28
312 386 390 28
313 391 392 28
314 391 393 28
315 391 394 28
316 391 395 28
317 396 397 28
318 396 398 28
319 396 399 28
320 396 400 28
321 401 402 28
322 401 403 28
323 401 404 28
324 401 405 28
325 406 407 28
326 406 408 28
327 406 409 28
328 406 410 28
329 411 412 28
330 411 413 28
331 411 414 28
332 411 415 28
333 416 417 28
334 416 418 28
335 416 419 28
336 416 420 28
337 421 422 28
338 421 423 28
339 421 424 28
340 421 425 28
341 426 427 28
342 426 428 28
343 426 429 28
344 426 430 28
345 431 432 28
346 431 433 28
347 431 434 28
348 431 435 28
349 436 437 28
350 436 438 28
351 436 439 28
352 436 440 28
353 441 442 28
354 441 443 28
355 441 444 28
356 441 445 28
357 446 447 28
358 446 448 28
359 446 449 28
360 446 450 28
361 451 452 28
362 451 453 28
363 451 454 28
364 451 455 28
365 456 457 28
366 456 458 28
367 456 459 28
368 456 460 28
369 461 462 28
370 461 463 28
371 461 464 28
372 461 465 28
373 466 467 28
374 466 468 28
375 466 469 28
376 466 470 28
377 471 472 28
378 471 473 28
379 471 474 28
380 471 475 28
381 476 477 28
382 476 478 28
383 476 479 28
384 476 480 28
385 481 482 28
386 481 483 28
387 481 484 28
388 481 485 28
389 486 487 28
390 486 488 28
391 486 489 28
392 486 490 28
393 491 492 28
394 491 493 28
395 491 494 28
396 491 495 28
397 496 497 28
398 496 498 28
399 496 499 28
400 496 500 28
401 501 502 28
402 501 503 28
403 501 504 28
404 501 505 28
405 506 507 28
406 506 508 28
407 506 509 28
408 506 510 28
409 511 512 28
410 511 513 28
411 511 514 28
412 511 515 28
413 516 517 28
414 516 518 28
415 516 519 28
416 516 520 28
417 521 522 28
418 521 523 28
419 521 524 28
420 521 525 28
421 526 527 28
422 526 528 28
423 526 529 28
424 526 530 28
425 531 532 28
426 531 533 28
427 531 534 28
428 531 535 28
429 536 537 28
430 536 538 28
431 536 539 28
432 536 540 28
433 541 542 28
434 541 543 28
435 541 544 28
436 541 545 28
437 546 547 28
438 546 548 28
439 546 549 28
440 546 550 28
441 551 552 28
442 551 553 28
443 551 554 28
444 551 555 28
445 556 557 28
446 556 558 28
447 556 559 28
448 556 560 28
449 561 562 28
450 561 563 28
451 561 564 28
452 561 565 28
453 566 567 28
454 566 568 28
455 566 569 28
456 566 570 28
457 571 572 28
458 571 573 28
459 571 574 28
460 571 575 28
461 576 577 28
462 576 578 28
463 576 579 28
464 576 580 28
465 581 582 28
466 581 583 28
467 581 584 28
468 581 585 28
469 586 587 28
470 586 588 28
471 586 589 28
472 586 590 28
473 591 592 28
474 591 593 28
475 591 594 28
476 591 595 28
477 596 597 28
478 596 598 28
479 596 599 28
480 596 600 28
481 601 602 28
482 601 603 28
483 601 604 28
484 601 605 28
485 606 607 28
486 606 608 28
487 606 609 28
488 606 610 28
489 611 612 28
490 611 613 28
491 611 614 28
492 611 615 28
493 616 617 28
494 616 618 28
495 616 619 28
496 616 620 28
497 621 622 28
498 621 623 28
499 621 624 28
500 621 625 28
501 626 627 28
502 626 628 28
503 626 629 28
504 626 630 28
505 631 632 28
506 631 633 28
507 631 634 28
508 631 635 28
509 636 637 28
510 636 638 28
511 636 639 28
512 636 640 28
513 641 642 28
514 641 643 28
515 641 644 28
516 641 645 28
517 646 647 28
518 646 648 28
519 646 649 28
520 646 650 28
521 651 652 28
522 651 653 28
523 651 654 28
524 651 655 28
525 656 657 28
526 656 658 28
527 656 659 28
528 656 660 28
529 661 662 28
530 661 663 28
531 661 664 28
532 661 665 28
533 666 667 28
534 666 668 28
535 666 669 28
536 666 670 28
537 671 672 28
538 671 673 28
539 671 674 28
540 671 675 28
541 676 677 28
542 676 678 28
543 676 679 28
544 676 680 28
545 681 682 28
546 681 683 28
547 681 684 28
548 681 685 28
549 686 687 28
550 686 688 28
551 686 689 28
552 686 690 28
553 691 692 28
554 691 693 28
555 691 694 28
556 691 695 28
557 696 697 28
558 696 698 28
559 696 699 28
560 696 700 28
561 701 702 28
562 701 703 28
563 701 704 28
564 701 705 28
565 706 707 28
566 706 708 28
567 706 709 28
568 706 710 28
569 711 712 28
570 711 713 28
571 711 714 28
572 711 715 28
573 716 717 28
574 716 718 28
575 716 719 28
576 716 720 28
577 721 722 28
578 721 723 28
579 721 724 28
580 721 725 28
581 726 727 28
582 726 728 28
583 726 729 28
584 726 730 28
585 731 732 28
586 731 733 28
587 731 734 28
588 731 735 28
589 736 737 28
590 736 738 28
591 736 739 28
592 736 740 28
593 741 742 28
594 741 743 28
595 741 744 28
596 741 745 28
597 746 747 28
598 746 748 28
599 746 749 28
600 746 750 28
601 751 752 28
602 751 753 28
603 751 754 28
604 751 755 28
605 756 757 28
606 756 758 28
607 756 759 28
608 756 760 28
609 761 762 28
610 761 763 28
611 761 764 28
612 761 765 28
613 766 767 28
614 766 768 28
615 766 769 28
616 766 770 28
617 771 772 28
618 771 773 28
619 771 774 28
620 771 775 28
621 776 777 28
622 776 778 28
623 776 779 28
624 776 780 28
625 781 782 28
626 781 783 28
627 781 784 28
628 781 785 28
629 786 787 28
630 786 788 28
631 786 789 28
632 786 790 28
633 791 792 28
634 791 793 28
635 791 794 28
636 791 795 28
637 796 797 28
638 796 798 28
639 796 799 28
640 796 800 28
641 801 802 28
642 801 803 28
643 801 804 28
644 801 805 28
645 806 807 28
646 806 808 28
647 806 809 28
648 806 810 28
649 811 812 28
650 811 813 28
651 811 814 28
652 811 815 28
653 816 817 28
654 816 818 28
655 816 819 28
656 816 820 28
657 821 822 28
658 821 823 28
659 821 824 28
660 821 825 28
661 826 827 28
662 826 828 28
663 826 829 28
664 826 830 28
665 831 832 28
666 831 833 28
667 831 834 28
668 831 835 28
669 836 837 28
670 836 838 28
671 836 839 28
672 836 840 28
673 841 842 28
674 841 843 28
675 841 844 28
676 841 845 28
677 846 847 28
678 846 848 28
679 846 849 28
680 846 850 28
681 851 852 28
682 851 853 28
683 851 854 28
684 851 855 28
685 856 857 28
686 856 858 28
687 856 859 28
688 856 860 28
689 861 862 28
690 861 863 28
691 861 864 28
692 861 865 28
693 866 867 28
694 866 868 28
695 866 869 28
696 866 870 28
697 871 872 28
698 871 873 28
699 871 874 28
700 871 875 28
701 876 877 28
702 876 878 28
703 876 879 28
704 876 880 28
705 881 882 28
706 881 883 28
707 881 884 28
708 881 885 28
709 886 887 28
710 886 888 28
711 886 889 28
712 886 890 28
713 891 892 28
714 891 893 28
715 891 894 28
716 891 895 28
717 896 897 28
718 896 898 28
719 896 899 28
720 896 900 28
721 901 902 28
722 901 903 28
723 901 904 28
724 901 905 28
725 906 907 28
726 906 908 28
727 906 909 28
728 906 910 28
729 911 912 28
730 911 913 28
731 911 914 28
732 911 915 28
733 916 917 28
734 916 918 28
735 916 919 28
736 916 920 28
737 921 922 28
738 921 923 28
739 921 924 28
740 921 925 28
741 926 927 28
742 926 928 28
743 926 929 28
744 926 930 28
745 931 932 28
746 931 933 28
747 931 934 28
748 931 935 28
749 936 937 28
750 936 938 28
751 936 939 28
752 936 940 28
753 941 942 28
754 941 943 28
755 941 944 28
756 941 945 28
757 946 947 28
758 946 948 28
759 946 949 28
760 946 950 28
761 951 952 28
762 951 953 28
763 951 954 28
764 951 955 28
765 956 957 28
766 956 958 28
767 956 959 28
768 956 960 28
769 961 962 28
770 961 963 28
771 961 964 28
772 961 965 28
773 966 967 28
774 966 968 28
775 966 969 28
776 966 970 28
777 971 972 28
778 971 973 28
779 971 974 28
780 971 975 28
781 976 977 28
782 976 978 28
783 976 979 28
784 976 980 28
785 981 982 28
786 981 983 28
787 981 984 28
788 981 985 28
789 986 987 28
790 986 988 28
791 986 989 28
792 986 990 28
793 991 992 28
794 991 993 28
795 991 994 28
796 991 995 28
797 996 997 28
798 996 998 28
799 996 999 28
800 996 1000 28
801 1001 1002 28
802 1001 1003 28
803 1001 1004 28
804 1001 1005 28
805 1006 1007 28
806 1006 1008 28
807 1006 1009 28
808 1006 1010 28
809 1011 1012 28
810 1011 1013 28
811 1011 1014 28
812 1011 1015 28
813 1016 1017 28
814 1016 1018 28
815 1016 1019 28
816 1016 1020 28
817 1021 1022 28
818 1021 1023 28
819 1021 1024 28
820 1021 1025 28
821 1026 1027 28
822 1026 1028 28
823 1026 1029 28
824 1026 1030 28
825 1031 1032 28
826 1031 1033 28
827 1031 1034 28
828 1031 1035 28
829 1036 1037 28
830 1036 1038 28
831 1036 1039 28
832 1036 1040 28
833 1041 1042 28
834 1041 1043 28
835 1041 1044 28
836 1041 1045 28
837 1046 1047 28
838 1046 1048 28
839 1046 1049 28
840 1046 1050 28
841 1051 1052 28
842 1051 1053 28
843 1051 1054 28
844 1051 1055 28
845 1056 1057 28
846 1056 1058 28
847 1056 1059 28
848 1056 1060 28
849 1061 1062 28
850 1061 1063 28
851 1061 1064 28
852 1061 1065 28
853 1066 1067 28
854 1066 1068 28
855 1066 1069 28
856 1066 1070 28
857 1071 1072 28
858 1071 1073 28
859 1071 1074 28
860 1071 1075 28
861 1076 1077 28
862 1076 1078 28
863 1076 1079 28
864 1076 1080 28
865 1081 1082 28
866 1081 1083 28
867 1081 1084 28
868 1081 1085 28
869 1086 1087 28
870 1086 1088 28
871 1086 1089 28
872 1086 1090 28
873 1091 1092 28
874 1091 1093 28
875 1091 1094 28
876 1091 1095 28
877 1096 1097 28
878 1096 1098 28
879 1096 1099 28
880 1096 1100 28
881 1101 1102 28
882 1101 1103 28
883 1101 1104 28
884 1101 1105 28
885 1106 1107 28
886 1106 1108 28
887 1106 1109 28
888 1106 1110 28
889 1111 1112 28
890 1111 1113 28
891 1111 1114 28
892 1111 1115 28
893 1116 1117 28
894 1116 1118 28
895 1116 1119 28
896 1116 1120 28
897 1121 1122 28
898 1121 1123 28
899 1121 1124 28
900 1121 1125 28
901 1126 1127 28
902 1126 1128 28
903 1126 1129 28
904 1126 1130 28
905 1131 1132 28
906 1131 1133 28
907 1131 1134 28
908 1131 1135 28
909 1136 1137 28
910 1136 1138 28
911 1136 1139 28
912 1136 1140 28
913 1141 1142 28
914 1141 1143 28
915 1141 1144 28
916 1141 1145 28
917 1146 1147 28
918 1146 1148 28
919 1146 1149 28
920 1146 1150 28
921 1151 1152 28
922 1151 1153 28
923 1151 1154 28
924 1151 1155 28
925 1156 1157 28
926 1156 1158 28
927 1156 1159 28
928 1156 1160 28
929 1161 1162 28
930 1161 1163 28
931 1161 1164 28
932 1161 1165 28
933 1166 1167 28
934 1166 1168 28
935 1166 1169 28
936 1166 1170 28
937 1171 1172 28
938 1171 1173 28
939 1171 1174 28
940 1171 1175 28
941 1176 1177 28
942 1176 1178 28
943 1176 1179 28
944 1176 1180 28
945 1181 1182 28
946 1181 1183 28
947 1181 1184 28
948 1181 1185 28
949 1186 1187 28
950 1186 1188 28
951 1186 1189 28
952 1186 1190 28
953 1191 1192 28
954 1191 1193 28
955 1191 1194 28
956 1191 1195 28
957 1196 1197 28
958 1196 1198 28
959 1196 1199 28
960 1196 1200 28
961 1201 1202 28
962 1201 1203 28
963 1201 1204 28
964 1201 1205 28
965 1206 1207 28
966 1206 1208 28
967 1206 1209 28
968 1206 1210 28
969 1211 1212 28
970 1211 1213 28
971 1211 1214 28
972 1211 1215 28
973 1216 1217 28
974 1216 1218 28
975 1216 1219 28
976 1216 1220 28
977 1221 1222 28
978 1221 1223 28
979 1221 1224 28
980 1221 1225 28
981 1226 1227 28
982 1226 1228 28
983 1226 1229 28
984 1226 1230 28
985 1231 1232 28
986 1231 1233 28
987 1231 1234 28
988 1231 1235 28
989 1236 1237 28
990 1236 1238 28
991 1236 1239 28
992 1236 1240 28
993 1241 1242 28
994 1241 1243 28
995 1241 1244 28
996 1241 1245 28
997 1246 1247 28
998 1246 1248 28
999 1246 1249 28
1000 1246 1250 28
1001 1251 1252 28
1002 1251 1253 28
1003 1251 1254 28
1004 1251 1255 28
1005 1256 1257 28
1006 1256 1258 28
1007 1256 1259 28
1008 1256 1260 28
1009 1261 1262 28
1010 1261 1263 28
1011 1261 1264 28
1012 1261 1265 28
1013 1266 1267 28
1014 1266 1268 28
1015 1266 1269 28
1016 1266 1270 28
1017 1271 1272 28
1018 1271 1273 28
1019 1271 1274 28
1020 1271 1275 28
1021 1276 1277 28
1022 1276 1278 28
1023 1276 1279 28
1024 1276 1280 28
1025 1281 1282 28
1026 1281 1283 28
1027 1281 1284 28
1028 1281 1285 28
1029 1286 1287 28
1030 1286 1288 28
1031 1286 1289 28
1032 1286 1290 28
1033 1291 1292 28
1034 1291 1293 28
1035 1291 1294 28
1036 1291 1295 28
1037 1296 1297 28
1038 1296 1298 28
1039 1296 1299 28
1040 1296 1300 28
1041 1301 1302 28
1042 1301 1303 28
1043 1301 1304 28
1044 1301 1305 28
1045 1306 1307 28
1046 1306 1308 28
1047 1306 1309 28
1048 1306 1310 28
1049 1311 1312 28
1050 1311 1313 28
1051 1311 1314 28
1052 1311 1315 28
1053 1316 1317 28
1054 1316 1318 28
1055 1316 1319 28
1056 1316 1320 28
1057 1321 1322 28
1058 1321 1323 28
1059 1321 1324 28
1060 1321 1325 28
1061 1326 1327 28
1062 1326 1328 28
1063 1326 1329 28
1064 1326 1330 28
1065 1331 1332 28
1066 1331 1333 28
1067 1331 1334 28
1068 1331 1335 28
1069 1336 1337 28
1070 1336 1338 28
1071 1336 1339 28
1072 1336 1340 28
1073 1341 1342 28
1074 1341 1343 28
1075 1341 1344 28
1076 1341 1345 28
1077 1346 1347 28
1078 1346 1348 28
1079 1346 1349 28
1080 1346 1350 28
1081 1351 1352 28
1082 1351 1353 28
1083 1351 1354 28
1084 1351 1355 28
1085 1356 1357 28
1086 1356 1358 28
1087 1356 1359 28
1088 1356 1360 28
1089 1361 1362 28
1090 1361 1363 28
1091 1361 1364 28
1092 1361 1365 28
1093 1366 1367 28
1094 1366 1368 28
1095 1366 1369 28
1096 1366 1370 28
1097 1371 1372 28
1098 1371 1373 28
1099 1371 1374 28
1100 1371 1375 28
1101 1376 1377 28
1102 1376 1378 28
1103 1376 1379 28
1104 1376 1380 28
1105 1381 1382 28
1106 1381 1383 28
1107 1381 1384 28
1108 1381 1385 28
1109 1386 1387 28
1110 1386 1388 28
1111 1386 1389 28
1112 1386 1390 28
1113 1391 1392 28
1114 1391 1393 28
1115 1391 1394 28
1116 1391 1395 28
1117 1396 1397 28
1118 1396 1398 28
1119 1396 1399 28
1120 1396 1400 28
1121 1401 1402 28
1122 1401 1403 28
1123 1401 1404 28
1124 1401 1405 28
1125 1406 1407 28
1126 1406 1408 28
1127 1406 1409 28
1128 1406 1410 28
1129 1411 1412 28
1130 1411 1413 28
1131 1411 1414 28
1132 1411 1415 28
1133 1416 1417 28
1134 1416 1418 28
1135 1416 1419 28
1136 1416 1420 28
1137 1421 1422 28
1138 1421 1423 28
1139 1421 1424 28
1140 1421 1425 28
1141 1426 1427 28
1142 1426 1428 28
1143 1426 1429 28
1144 1426 1430 28
1145 1431 1432 28
1146 1431 1433 28
1147 1431 1434 28
1148 1431 1435 28
1149 1436 1437 28
1150 1436 1438 28
1151 1436 1439 28
1152 1436 1440 28
1153 1441 1442 28
1154 1441 1443 28
1155 1441 1444 28
1156 1441 1445 28
1157 1446 1447 28
1158 1446 1448 28
1159 1446 1449 28
1160 1446 1450 28
1161 1451 1452 28
1162 1451 1453 28
1163 1451 1454 28
1164 1451 1455 28
1165 1456 1457 28
1166 1456 1458 28
1167 1456 1459 28
1168 1456 1460 28
1169 1461 1462 28
1170 1461 1463 28
1171 1461 1464 28
1172 1461 1465 28
1173 1466 1467 28
1174 1466 1468 28
1175 1466 1469 28
1176 1466 1470 28
1177 1471 1472 28
1178 1471 1473 28
1179 1471 1474 28
1180 1471 1475 28
1181 1476 1477 28
1182 1476 1478 28
1183 1476 1479 28
1184 1476 1480 28
1185 1481 1482 28
1186 1481 1483 28
1187 1481 1484 28
1188 1481 1485 28
1189 1486 1487 28
1190 1486 1488 28
1191 1486 1489 28
1192 1486 1490 28
1193 1491 1492 28
1194 1491 1493 28
1195 1491 1494 28
1196 1491 1495 28
1197 1496 1497 28
1198 1496 1498 28
1199 1496 1499 28
1200 1496 1500 28
1201 1501 1502 28
1202 1501 1503 28
1203 1501 1504 28
1204 1501 1505 28
1205 1506 1507 28
1206 1506 1508 28
1207 1506 1509 28
1208 1506 1510 28
1209 1511 1512 28
1210 1511 1513 28
1211 1511 1514 28
1212 1511 1515 28
1213 1516 1517 28
1214 1516 1518 28
1215 1516 1519 28
1216 1516 1520 28
1217 1521 1522 28
1218 1521 1523 28
1219 1521 1524 28
1220 1521 1525 28
1221 1526 1527 28
1222 1526 1528 28
1223 1526 1529 28
1224 1526 1530 28
1225 1531 1532 28
1226 1531 1533 28
1227 1531 1534 28
1228 1531 1535 28
1229 1536 1537 28
1230 1536 1538 28
1231 1536 1539 28
1232 1536 1540 28
1233 1541 1542 28
1234 1541 1543 28
1235 1541 1544 28
1236 1541 1545 28
1237 1546 1547 28
1238 1546 1548 28
1239 1546 1549 28
1240 1546 1550 28
1241 1551 1552 28
1242 1551 1553 28
1243 1551 1554 28
1244 1551 1555 28
1245 1556 1557 28
1246 1556 1558 28
1247 1556 1559 28
1248 1556 1560 28
1249 1561 1562 28
1250 1561 1563 28
1251 1561 1564 28
1252 1561 1565 28
1253 1566 1567 28
1254 1566 1568 28
1255 1566 1569 28
1256 1566 1570 28
1257 1571 1572 28
1258 1571 1573 28
1259 1571 1574 28
1260 1571 1575 28
1261 1576 1577 28
1262 1576 1578 28
1263 1576 1579 28
1264 1576 1580 28
1265 1581 1582 28
1266 1581 1583 28
1267 1581 1584 28
1268 1581 1585 28
1269 1586 1587 28
1270 1586 1588 28
1271 1586 1589 28
1272 1586 1590 28
1273 1591 1592 28
1274 1591 1593 28
1275 1591 1594 28
1276 1591 1595 28
1277 1596 1597 28
1278 1596 1598 28
1279 1596 1599 28
1280 1596 1600 28
1281 1601 1602 28
1282 1601 1603 28
1283 1601 1604 28
1284 1601 1605 28
1285 1606 1607 28
1286 1606 1608 28
1287 1606 1609 28
1288 1606 1610 28
1289 1611 1612 28
1290 1611 1613 28
1291 1611 1614 28
1292 1611 1615 28
1293 1616 1617 28
1294 1616 1618 28
1295 1616 1619 28
1296 1616 1620 28
1297 1621 1622 28
1298 1621 1623 28
1299 1621 1624 28
1300 1621 1625 28
1301 1626 1627 28
1302 1626 1628 28
1303 1626 1629 28
1304 1626 1630 28
1305 1631 1632 28
1306 1631 1633 28
1307 1631 1634 28
1308 1631 1635 28
1309 1636 1637 28
1310 1636 1638 28
1311 1636 1639 28
1312 1636 1640 28
1313 1641 1642 28
1314 1641 1643 28
1315 1641 1644 28
1316 1641 1645 28
1317 1646 1647 28
1318 1646 1648 28
1319 1646 1649 28
1320 1646 1650 28
1321 1651 1652 28
1322 1651 1653 28
1323 1651 1654 28
1324 1651 1655 28
1325 1656 1657 28
1326 1656 1658 28
1327 1656 1659 28
1328 1656 1660 28
1329 1661 1662 28
1330 1661 1663 28
1331 1661 1664 28
1332 1661 1665 28
1333 1666 1667 28
1334 1666 1668 28
1335 1666 1669 28
1336 1666 1670 28
1337 1671 1672 28
1338 1671 1673 28
1339 1671 1674 28
1340 1671 1675 28
1341 1676 1677 28
1342 1676 1678 28
1343 1676 1679 28
1344 1676 1680 28
1345 1681 1682 28
1346 1681 1683 28
1347 1681 1684 28
1348 1681 1685 28
1349 1686 1687 28
1350 1686 1688 28
1351 1686 1689 28
1352 1686 1690 28
1353 1691 1692 28
1354 1691 1693 28
1355 1691 1694 28
1356 1691 1695 28
1357 1696 1697 28
1358 1696 1698 28
1359 1696 1699 28
1360 1696 1700 28
1361 1701 1702 28
1362 1701 1703 28
1363 1701 1704 28
1364 1701 1705 28
1365 1706 1707 28
1366 1706 1708 28
1367 1706 1709 28
1368 1706 1710 28
1369 1711 1712 28
1370 1711 1713 28
1371 1711 1714 28
1372 1711 1715 28
1373 1716 1717 28
1374 1716 1718 28
1375 1716 1719 28
1376 1716 1720 28
1377 1721 1722 28
1378 1721 1723 28
1379 1721 1724 28
1380 1721 1725 28
1381 1726 1727 28
1382 1726 1728 28
1383 1726 1729 28
1384 1726 1730 28
1385 1731 1732 28
1386 1731 1733 28
1387 1731 1734 28
1388 1731 1735 28
1389 1736 1737 28
1390 1736 1738 28
1391 1736 1739 28
1392 1736 1740 28
1393 1741 1742 28
1394 1741 1743 28
1395 1741 1744 28
1396 1741 1745 28
1397 1746 1747 28
1398 1746 1748 28
1399 1746 1749 28
1400 1746 1750 28
1401 1751 1752 28
1402 1751 1753 28
1403 1751 1754 28
1404 1751 1755 28
1405 1756 1757 28
1406 1756 1758 28
1407 1756 1759 28
1408 1756 1760 28
1409 1761 1762 28
1410 1761 1763 28
1411 1761 1764 28
1412 1761 1765 28
1413 1766 1767 28
1414 1766 1768 28
1415 1766 1769 28
1416 1766 1770 28
1417 1771 1772 28
1418 1771 1773 28
1419 1771 1774 28
1420 1771 1775 28
1421 1776 1777 28
1422 1776 1778 28
1423 1776 1779 28
1424 1776 1780 28
1425 1781 1782 28
1426 1781 1783 28
1427 1781 1784 28
1428 1781 1785 28
1429 1786 1787 28
1430 1786 1788 28
1431 1786 1789 28
1432 1786 1790 28
1433 1791 1792 28
1434 1791 1793 28
1435 1791 1794 28
1436 1791 1795 28
1437 1796 1797 28
1438 1796 1798 28
1439 1796 1799 28
1440 1796 1800 28
1441 1801 1802 28
1442 1801 1803 28
1443 1801 1804 28
1444 1801 1805 28
1445 1806 1807 28
1446 1806 1808 28
1447 1806 1809 28
1448 1806 1810 28
1449 1811 1812 28
1450 1811 1813 28
1451 1811 1814 28
1452 1811 1815 28
1453 1816 1817 28
1454 1816 1818 28
1455 1816 1819 28
1456 1816 1820 28
1457 1821 1822 28
1458 1821 1823 28
1459 1821 1824 28
1460 1821 1825 28
1461 1826 1827 28
1462 1826 1828 28
1463 1826 1829 28
1464 1826 1830 28
1465 1831 1832 28
1466 1831 1833 28
1467 1831 1834 28
1468 1831 1835 28
1469 1836 1837 28
1470 1836 1838 28
1471 1836 1839 28
1472 1836 1840 28
1473 1841 1842 28
1474 1841 1843 28
1475 1841 1844 28
1476 1841 1845 28
1477 1846 1847 28
1478 1846 1848 28
1479 1846 1849 28
1480 1846 1850 28
1481 1851 1852 28
1482 1851 1853 28
1483 1851 1854 28
1484 1851 1855 28
1485 1856 1857 28
1486 1856 1858 28
1487 1856 1859 28
1488 1856 1860 28
1489 1861 1862 28
1490 1861 1863 28
1491 1861 1864 28
1492 1861 1865 28
1493 1866 1867 28
1494 1866 1868 28
1495 1866 1869 28
1496 1866 1870 28
1497 1871 1872 28
1498 1871 1873 28
1499 1871 1874 28
1500 1871 1875 28
1501 1876 1877 28
1502 1876 1878 28
1503 1876 1879 28
1504 1876 1880 28
1505 1881 1882 28
1506 1881 1883 28
1507 1881 1884 28
1508 1881 1885 28
1509 1886 1887 28
1510 1886 1888 28
1511 1886 1889 28
1512 1886 1890 28
1513 1891 1892 28
1514 1891 1893 28
1515 1891 1894 28
1516 1891 1895 28
1517 1896 1897 28
1518 1896 1898 28
1519 1896 1899 28
1520 1896 1900 28
1521 1901 1902 28
1522 1901 1903 28
1523 1901 1904 28
1524 1901 1905 28
1525 1906 1907 28
1526 1906 1908 28
1527 1906 1909 28
1528 1906 1910 28
1529 1911 1912 28
1530 1911 1913 28
1531 1911 1914 28
1532 1911 1915 28
1533 1916 1917 28
1534 1916 1918 28
1535 1916 1919 28
1536 1916 1920 28
1537 1921 1922 28
1538 1921 1923 28
1539 1921 1924 28
1540 1921 1925 28
1541 1926 1927 28
1542 1926 1928 28
1543 1926 1929 28
1544 1926 1930 28
1545 1931 1932 28
1546 1931 1933 28
1547 1931 1934 28
1548 1931 1935 28
1549 1936 1937 28
1550 1936 1938 28
1551 1936 1939 28
1552 1936 1940 28
1553 1941 1942 28
1554 1941 1943 28
1555 1941 1944 28
1556 1941 1945 28
1557 1946 1947 28
1558 1946 1948 28
1559 1946 1949 28
1560 1946 1950 28
1561 1951 1952 28
1562 1951 1953 28
1563 1951 1954 28
1564 1951 1955 28
1565 1956 1957 28
1566 1956 1958 28
1567 1956 1959 28
1568 1956 1960 28
1569 1961 1962 28
1570 1961 1963 28
1571 1961 1964 28
1572 1961 1965 28
1573 1966 1967 28
1574 1966 1968 28
1575 1966 1969 28
1576 1966 1970 28
1577 1971 1972 28
1578 1971 1973 28
1579 1971 1974 28
1580 1971 1975 28
1581 1976 1977 28
1582 1976 1978 28
1583 1976 1979 28
1584 1976 1980 28
1585 1981 1982 28
1586 1981 1983 28
1587 1981 1984 28
1588 1981 1985 28
1589 1986 1987 28
1590 1986 1988 28
1591 1986 1989 28
1592 1986 1990 28
1593 1991 1992 28
1594 1991 1993 28
1595 1991 1994 28
1596 1991 1995 28
1597 1996 1997 28
1598 1996 1998 28
1599 1996 1999 28
1600 1996 2000 28
1601 2001 2002 28
1602 2001 2003 28
1603 2001 2004 28
1604 2001 2005 28
1605 2006 2007 28
1606 2006 2008 28
1607 2006 2009 28
1608 2006 2010 28
1609 2011 2012 28
1610 2011 2013 28
1611 2011 2014 28
1612 2011 2015 28
1613 2016 2017 28
1614 2016 2018 28
1615 2016 2019 28
1616 2016 2020 28
1617 2021 2022 28
1618 2021 2023 28
1619 2021 2024 28
1620 2021 2025 28
1621 2026 2027 28
1622 2026 2028 28
1623 2026 2029 28
1624 2026 2030 28
1625 2031 2032 28
1626 2031 2033 28
1627 2031 2034 28
1628 2031 2035 28
1629 2036 2037 28
1630 2036 2038 28
1631 2036 2039 28
1632 2036 2040 28
1633 2041 2042 28
1634 2041 2043 28
1635 2041 2044 28
1636 2041 2045 28
1637 2046 2047 28
1638 2046 2048 28
1639 2046 2049 28
1640 2046 2050 28
1641 2051 2052 28
1642 2051 2053 28
1643 2051 2054 28
1644 2051 2055 28
1645 2056 2057 28
1646 2056 2058 28
1647 2056 2059 28
1648 2056 2060 28
1649 2061 2062 28
1650 2061 2063 28
1651 2061 2064 28
1652 2061 2065 28
1653 2066 2067 28
1654 2066 2068 28
1655 2066 2069 28
1656 2066 2070 28
1657 2071 2072 28
1658 2071 2073 28
1659 2071 2074 28
1660 2071 2075 28
1661 2076 2077 28
1662 2076 2078 28
1663 2076 2079 28
1664 2076 2080 28
1665 2081 2082 28
1666 2081 2083 28
1667 2081 2084 28
1668 2081 2085 28
1669 2086 2087 28
1670 2086 2088 28
1671 2086 2089 28
1672 2086 2090 28
1673 2091 2092 28
1674 2091 2093 28
1675 2091 2094 28
1676 2091 2095 28
1677 2096 2097 28
1678 2096 2098 28
1679 2096 2099 28
1680 2096 2100 28
1681 2101 2102 28
1682 2101 2103 28
1683 2101 2104 28
1684 2101 2105 28
1685 2106 2107 28
1686 2106 2108 28
1687 2106 2109 28
1688 2106 2110 28
1689 2111 2112 28
1690 2111 2113 28
1691 2111 2114 28
1692 2111 2115 28
1693 2116 2117 28
1694 2116 2118 28
1695 2116 2119 28
1696 2116 2120 28
1697 2121 2122 28
1698 2121 2123 28
1699 2121 2124 28
1700 2121 2125 28
1701 2126 2127 28
1702 2126 2128 28
1703 2126 2129 28
1704 2126 2130 28
1705 2131 2132 28
1706 2131 2133 28
1707 2131 2134 28
1708 2131 2135 28
1709 2136 2137 28
1710 2136 2138 28
1711 2136 2139 28
1712 2136 2140 28
1713 2141 2142 28
1714 2141 2143 28
1715 2141 2144 28
1716 2141 2145 28
1717 2146 2147 28
1718 2146 2148 28
1719 2146 2149 28
1720 2146 2150 28
1721 2151 2152 28
1722 2151 2153 28
1723 2151 2154 28
1724 2151 2155 28
1725 2156 2157 28
1726 2156 2158 28
1727 2156 2159 28
1728 2156 2160 28
1729 2161 2162 28
1730 2161 2163 28
1731 2161 2164 28
1732 2161 2165 28
1733 2166 2167 28
1734 2166 2168 28
1735 2166 2169 28
1736 2166 2170 28
1737 2171 2172 28
1738 2171 2173 28
1739 2171 2174 28
1740 2171 2175 28
1741 2176 2177 28
1742 2176 2178 28
1743 2176 2179 28
1744 2176 2180 28
1745 2181 2182 28
1746 2181 2183 28
1747 2181 2184 28
1748 2181 2185 28
1749 2186 2187 28
1750 2186 2188 28
1751 2186 2189 28
1752 2186 2190 28
1753 2191 2192 28
1754 2191 2193 28
1755 2191 2194 28
1756 2191 2195 28
1757 2196 2197 28
1758 2196 2198 28
1759 2196 2199 28
1760 2196 2200 28
1761 2201 2202 28
1762 2201 2203 28
1763 2201 2204 28
1764 2201 2205 28
1765 2206 2207 28
1766 2206 2208 28
1767 2206 2209 28
1768 2206 2210 28
1769 2211 2212 28
1770 2211 2213 28
1771 2211 2214 28
1772 2211 2215 28
1773 2216 2217 28
1774 2216 2218 28
1775 2216 2219 28
1776 2216 2220 28
1777 2221 2222 28
1778 2221 2223 28
1779 2221 2224 28
1780 2221 2225 28
1781 2226 2227 28
1782 2226 2228 28
1783 2226 2229 28
1784 2226 2230 28
1785 2231 2232 28
1786 2231 2233 28
1787 2231 2234 28
1788 2231 2235 28
1789 2236 2237 28
1790 2236 2238 28
1791 2236 2239 28
1792 2236 2240 28
1793 2241 2242 28
1794 2241 2243 28
1795 2241 2244 28
1796 2241 2245 28
1797 2246 2247 28
1798 2246 2248 28
1799 2246 2249 28
1800 2246 2250 28
1801 2251 2252 28
1802 2251 2253 28
1803 2251 2254 28
1804 2251 2255 28
1805 2256 2257 28
1806 2256 2258 28
1807 2256 2259 28
1808 2256 2260 28
1809 2261 2262 28
1810 2261 2263 28
1811 2261 2264 28
1812 2261 2265 28
1813 2266 2267 28
1814 2266 2268 28
1815 2266 2269 28
1816 2266 2270 28
1817 2271 2272 28
1818 2271 2273 28
1819 2271 2274 28
1820 2271 2275 28
1821 2276 2277 28
1822 2276 2278 28
1823 2276 2279 28
1824 2276 2280 28
1825 2281 2282 28
1826 2281 2283 28
1827 2281 2284 28
1828 2281 2285 28
1829 2286 2287 28
1830 2286 2288 28
1831 2286 2289 28
1832 2286 2290 28
1833 2291 2292 28
1834 2291 2293 28
1835 2291 2294 28
1836 2291 2295 28
1837 2296 2297 28
1838 2296 2298 28
1839 2296 2299 28
1840 2296 2300 28
1841 2301 2302 28
1842 2301 2303 28
1843 2301 2304 28
1844 2301 2305 28
1845 2306 2307 28
1846 2306 2308 28
1847 2306 2309 28
1848 2306 2310 28
1849 2311 2312 28
1850 2311 2313 28
1851 2311 2314 28
1852 2311 2315 28
1853 2316 2317 28
1854 2316 2318 28
1855 2316 2319 28
1856 2316 2320 28
1857 2321 2322 28
1858 2321 2323 28
1859 2321 2324 28
1860 2321 2325 28
1861 2326 2327 28
1862 2326 2328 28
1863 2326 2329 28
1864 2326 2330 28
1865 2331 2332 28
1866 2331 2333 28
1867 2331 2334 28
1868 2331 2335 28
1869 2336 2337 28
1870 2336 2338 28
1871 2336 2339 28
1872 2336 2340 28
1873 2341 2342 28
1874 2341 2343 28
1875 2341 2344 28
1876 2341 2345 28
1877 2346 2347 28
1878 2346 2348 28
1879 2346 2349 28
1880 2346 2350 28
1881 2351 2352 28
1882 2351 2353 28
1883 2351 2354 28
1884 2351 2355 28
1885 2356 2357 28
1886 2356 2358 28
1887 2356 2359 28
1888 2356 2360 28
1889 2361 2362 28
1890 2361 2363 28
1891 2361 2364 28
1892 2361 2365 28
1893 2366 2367 28
1894 2366 2368 28
1895 2366 2369 28
1896 2366 2370 28
1897 2371 2372 28
1898 2371 2373 28
1899 2371 2374 28
1900 2371 2375 28
1901 2376 2377 28
1902 2376 2378 28
1903 2376 2379 28
1904 2376 2380 28
1905 2381 2382 28
1906 2381 2383 28
1907 2381 2384 28
1908 2381 2385 28
1909 2386 2387 28
1910 2386 2388 28
1911 2386 2389 28
1912 2386 2390 28
1913 2391 2392 28
1914 2391 2393 28
1915 2391 2394 28
1916 2391 2395 28
1917 2396 2397 28
1918 2396 2398 28
1919 2396 2399 28
1920 2396 2400 28
1921 2401 2402 28
1922 2401 2403 28
1923 2401 2404 28
1924 2401 2405 28
1925 2406 2407 28
1926 2406 2408 28
1927 2406 2409 28
1928 2406 2410 28
1929 2411 2412 28
1930 2411 2413 28
1931 2411 2414 28
1932 2411 2415 28
1933 2416 2417 28
1934 2416 2418 28
1935 2416 2419 28
1936 2416 2420 28
1937 2421 2422 28
1938 2421 2423 28
1939 2421 2424 28
1940 2421 2425 28
1941 2426 2427 28
1942 2426 2428 28
1943 2426 2429 28
1944 2426 2430 28
1945 2431 2432 28
1946 2431 2433 28
1947 2431 2434 28
1948 2431 2435 28
1949 2436 2437 28
1950 2436 2438 28
1951 2436 2439 28
1952 2436 2440 28
1953 2441 2442 28
1954 2441 2443 28
1955 2441 2444 28
1956 2441 2445 28
1957 2446 2447 28
1958 2446 2448 28
1959 2446 2449 28
1960 2446 2450 28
1961 2451 2452 28
1962 2451 2453 28
1963 2451 2454 28
1964 2451 2455 28
1965 2456 2457 28
1966 2456 2458 28
1967 2456 2459 28
1968 2456 2460 28
1969 2461 2462 28
1970 2461 2463 28
1971 2461 2464 28
1972 2461 2465 28
1973 2466 2467 28
1974 2466 2468 28
1975 2466 2469 28
1976 2466 2470 28
1977 2471 2472 28
1978 2471 2473 28
1979 2471 2474 28
1980 2471 2475 28
1981 2476 2477 28
1982 2476 2478 28
1983 2476 2479 28
1984 2476 2480 28
1985 2481 2482 28
1986 2481 2483 28
1987 2481 2484 28
1988 2481 2485 28
1989 2486 2487 28
1990 2486 2488 28
1991 2486 2489 28
1992 2486 2490 28
1993 2491 2492 28
1994 2491 2493 28
1995 2491 2494 28
1996 2491 2495 28
1997 2496 2497 28
1998 2496 2498 28
1999 2496 2499 28
2000 2496 2500 28
2001 2501 2502 28
2002 2501 2503 28
2003 2501 2504 28
2004 2501 2505 28
2005 2506 2507 28
2006 2506 2508 28
2007 2506 2509 28
2008 2506 2510 28
2009 2511 2512 28
2010 2511 2513 28
2011 2511 2514 28
2012 2511 2515 28
2013 2516 2517 28
2014 2516 2518 28
2015 2516 2519 28
2016 2516 2520 28
2017 2521 2522 28
2018 2521 2523 28
2019 2521 2524 28
2020 2521 2525 28
2021 2526 2527 28
2022 2526 2528 28
2023 2526 2529 28
2024 2526 2530 28
2025 2531 2532 28
2026 2531 2533 28
2027 2531 2534 28
2028 2531 2535 28
2029 2536 2537 28
2030 2536 2538 28
2031 2536 2539 28
2032 2536 2540 28
2033 2541 2542 28
2034 2541 2543 28
2035 2541 2544 28
2036 2541 2545 28
2037 2546 2547 28
2038 2546 2548 28
2039 2546 2549 28
2040 2546 2550 28
2041 2551 2552 28
2042 2551 2553 28
2043 2551 2554 28
2044 2551 2555 28
2045 2556 2557 28
2046 2556 2558 28
2047 2556 2559 28
2048 2556 2560 28
2049 2561 2562 28
2050 2561 2563 28
2051 2561 2564 28
2052 2561 2565 28
2053 2566 2567 28
2054 2566 2568 28
2055 2566 2569 28
2056 2566 2570 28
2057 2571 2572 28
2058 2571 2573 28
2059 2571 2574 28
2060 2571 2575 28
2061 2576 2577 28
2062 2576 2578 28
2063 2576 2579 28
2064 2576 2580 28
2065 2581 2582 28
2066 2581 2583 28
2067 2581 2584 28
2068 2581 2585 28
2069 2586 2587 28
2070 2586 2588 28
2071 2586 2589 28
2072 2586 2590 28
2073 2591 2592 28
2074 2591 2593 28
2075 2591 2594 28
2076 2591 2595 28
2077 2596 2597 28
2078 2596 2598 28
2079 2596 2599 28
2080 2596 2600 28
2081 2601 2602 28
2082 2601 2603 28
2083 2601 2604 28
2084 2601 2605 28
2085 2606 2607 28
2086 2606 2608 28
2087 2606 2609 28
2088 2606 2610 28
2089 2611 2612 28
2090 2611 2613 28
2091 2611 2614 28
2092 2611 2615 28
2093 2616 2617 28
2094 2616 2618 28
2095 2616 2619 28
2096 2616 2620 28
2097 2621 2622 28
2098 2621 2623 28
2099 2621 2624 28
2100 2621 2625 28
2101 2626 2627 28
2102 2626 2628 28
2103 2626 2629 28
2104 2626 2630 28
2105 2631 2632 28
2106 2631 2633 28
2107 2631 2634 28
2108 2631 2635 28
2109 2636 2637 28
2110 2636 2638 28
2111 2636 2639 28
2112 2636 2640 28
2113 2641 2642 28
2114 2641 2643 28
2115 2641 2644 28
2116 2641 2645 28
2117 2646 2647 28
2118 2646 2648 28
2119 2646 2649 28
2120 2646 2650 28
2121 2651 2652 28
2122 2651 2653 28
2123 2651 2654 28
2124 2651 2655 28
2125 2656 2657 28
2126 2656 2658 28
2127 2656 2659 28
2128 2656 2660 28
2129 2661 2662 28
2130 2661 2663 28
2131 2661 2664 28
2132 2661 2665 28
2133 2666 2667 28
2134 2666 2668 28
2135 2666 2669 28
2136 2666 2670 28
2137 2671 2672 28
2138 2671 2673 28
2139 2671 2674 28
2140 2671 2675 28
2141 2676 2677 28
2142 2676 2678 28
2143 2676 2679 28
2144 2676 2680 28
2145 2681 2682 28
2146 2681 2683 28
2147 2681 2684 28
2148 2681 2685 28
2149 2686 2687 28
2150 2686 2688 28
2151 2686 2689 28
2152 2686 2690 28
2153 2691 2692 28
2154 2691 2693 28
2155 2691 2694 28
2156 2691 2695 28
2157 2696 2697 28
2158 2696 2698 28
2159 2696 2699 28
2160 2696 2700 28
2161 2701 2702 28
2162 2701 2703 28
2163 2701 2704 28
2164 2701 2705 28
2165 2706 2707 28
2166 2706 2708 28
2167 2706 2709 28
2168 2706 2710 28
2169 2711 2712 28
2170 2711 2713 28
2171 2711 2714 28
2172 2711 2715 28
2173 2716 2717 28
2174 2716 2718 28
2175 2716 2719 28
2176 2716 2720 28
2177 2721 2722 28
2178 2721 2723 28
2179 2721 2724 28
2180 2721 2725 28
2181 2726 2727 28
2182 2726 2728 28
2183 2726 2729 28
2184 2726 2730 28
2185 2731 2732 28
2186 2731 2733 28
2187 2731 2734 28
2188 2731 2735 28
2189 2736 2737 28
2190 2736 2738 28
2191 2736 2739 28
2192 2736 2740 28
2193 2741 2742 28
2194 2741 2743 28
2195 2741 2744 28
2196 2741 2745 28
2197 2746 2747 28
2198 2746 2748 28
2199 2746 2749 28
2200 2746 2750 28
2201 2751 2752 28
2202 2751 2753 28
2203 2751 2754 28
2204 2751 2755 28
2205 2756 2757 28
2206 2756 2758 28
2207 2756 2759 28
2208 2756 2760 28
2209 2761 2762 28
2210 2761 2763 28
2211 2761 2764 28
2212 2761 2765 28
2213 2766 2767 28
2214 2766 2768 28
2215 2766 2769 28
2216 2766 2770 28
2217 2771 2772 28
2218 2771 2773 28
2219 2771 2774 28
2220 2771 2775 28
2221 2776 2777 28
2222 2776 2778 28
2223 2776 2779 28
2224 2776 2780 28
2225 2781 2782 28
2226 2781 2783 28
2227 2781 2784 28
2228 2781 2785 28
2229 2786 2787 28
2230 2786 2788 28
2231 2786 2789 28
2232 2786 2790 28
2233 2791 2792 28
2234 2791 2793 28
2235 2791 2794 28
2236 2791 2795 28
2237 2796 2797 28
2238 2796 2798 28
2239 2796 2799 28
2240 2796 2800 28
2241 2801 2802 28
2242 2801 2803 28
2243 2801 2804 28
2244 2801 2805 28
2245 2806 2807 28
2246 2806 2808 28
2247 2806 2809 28
2248 2806 2810 28
2249 2811 2812 28
2250 2811 2813 28
2251 2811 2814 28
2252 2811 2815 28
2253 2816 2817 28
2254 2816 2818 28
2255 2816 2819 28
2256 2816 2820 28
2257 2821 2822 28
2258 2821 2823 28
2259 2821 2824 28
2260 2821 2825 28
2261 2826 2827 28
2262 2826 2828 28
2263 2826 2829 28
2264 2826 2830 28
2265 2831 2832 28
2266 2831 2833 28
2267 2831 2834 28
2268 2831 2835 28
2269 2836 2837 28
2270 2836 2838 28
2271 2836 2839 28
2272 2836 2840 28
2273 2841 2842 28
2274 2841 2843 28
2275 2841 2844 28
2276 2841 2845 28
2277 2846 2847 28
2278 2846 2848 28
2279 2846 2849 28
2280 2846 2850 28
2281 2851 2852 28
2282 2851 2853 28
2283 2851 2854 28
2284 2851 2855 28
2285 2856 2857 28
2286 2856 2858 28
2287 2856 2859 28
2288 2856 2860 28
2289 2861 2862 28
2290 2861 2863 28
2291 2861 2864 28
2292 2861 2865 28
2293 2866 2867 28
2294 2866 2868 28
2295 2866 2869 28
2296 2866 2870 28
2297 2871 2872 28
2298 2871 2873 28
2299 2871 2874 28
2300 2871 2875 28
2301 2876 2877 28
2302 2876 2878 28
2303 2876 2879 28
2304 2876 2880 28
2305 2881 2882 28
2306 2881 2883 28
2307 2881 2884 28
2308 2881 2885 28
2309 2886 2887 28
2310 2886 2888 28
2311 2886 2889 28
2312 2886 2890 28
2313 2891 2892 28
2314 2891 2893 28
2315 2891 2894 28
2316 2891 2895 28
2317 2896 2897 28
2318 2896 2898 28
2319 2896 2899 28
2320 2896 2900 28
2321 2901 2902 28
2322 2901 2903 28
2323 2901 2904 28
2324 2901 2905 28
2325 2906 2907 28
2326 2906 2908 28
2327 2906 2909 28
2328 2906 2910 28
2329 2911 2912 28
2330 2911 2913 28
2331 2911 2914 28
2332 2911 2915 28
2333 2916 2917 28
2334 2916 2918 28
2335 2916 2919 28
2336 2916 2920 28
2337 2921 2922 28
2338 2921 2923 28
2339 2921 2924 28
2340 2921 2925 28
2341 2926 2927 28
2342 2926 2928 28
2343 2926 2929 28
2344 2926 2930 28
2345 2931 2932 28
2346 2931 2933 28
2347 2931 2934 28
2348 2931 2935 28
2349 2936 2937 28
2350 2936 2938 28
2351 2936 2939 28
2352 2936 2940 28
2353 2941 2942 28
2354 2941 2943 28
2355 2941 2944 28
2356 2941 2945 28
2357 2946 2947 28
2358 2946 2948 28
2359 2946 2949 28
2360 2946 2950 28
2361 2951 2952 28
2362 2951 2953 28
2363 2951 2954 28
2364 2951 2955 28
2365 2956 2957 28
2366 2956 2958 28
2367 2956 2959 28
2368 2956 2960 28
2369 2961 2962 28
2370 2961 2963 28
2371 2961 2964 28
2372 2961 2965 28
2373 2966 2967 28
2374 2966 2968 28
2375 2966 2969 28
2376 2966 2970 28
2377 2971 2972 28
2378 2971 2973 28
2379 2971 2974 28
2380 2971 2975 28
2381 2976 2977 28
2382 2976 2978 28
2383 2976 2979 28
2384 2976 2980 28
2385 2981 2982 28
2386 2981 2983 28
2387 2981 2984 28
2388 2981 2985 28
2389 2986 2987 28
2390 2986 2988 28
2391 2986 2989 28
2392 2986 2990 28
2393 2991 2992 28
2394 2991 2993 28
2395 2991 2994 28
2396 2991 2995 28
2397 2996 2997 28
2398 2996 2998 28
2399 2996 2999 28
2400 2996 3000 28
2401 3001 3002 28
2402 3001 3003 28
2403 3001 3004 28
2404 3001 3005 28
2405 3006 3007 28
2406 3006 3008 28
2407 3006 3009 28
2408 3006 3010 28
2409 3011 3012 28
2410 3011 3013 28
2411 3011 3014 28
2412 3011 3015 28
2413 3016 3017 28
2414 3016 3018 28
2415 3016 3019 28
2416 3016 3020 28
2417 3021 3022 28
2418 3021 3023 28
2419 3021 3024 28
2420 3021 3025 28
2421 3026 3027 28
2422 3026 3028 28
2423 3026 3029 28
2424 3026 3030 28
2425 3031 3032 28
2426 3031 3033 28
2427 3031 3034 28
2428 3031 3035 28
2429 3036 3037 28
2430 3036 3038 28
2431 3036 3039 28
2432 3036 3040 28
2433 3041 3042 28
2434 3041 3043 28
2435 3041 3044 28
2436 3041 3045 28
2437 3046 3047 28
2438 3046 3048 28
2439 3046 3049 28
2440 3046 3050 28
2441 3051 3052 28
2442 3051 3053 28
2443 3051 3054 28
2444 3051 3055 28
2445 3056 3057 28
2446 3056 3058 28
2447 3056 3059 28
2448 3056 3060 28
2449 3061 3062 28
2450 3061 3063 28
2451 3061 3064 28
2452 3061 3065 28
2453 3066 3067 28
2454 3066 3068 28
2455 3066 3069 28
2456 3066 3070 28
2457 3071 3072 28
2458 3071 3073 28
2459 3071 3074 28
2460 3071 3075 28
2461 3076 3077 28
2462 3076 3078 28
2463 3076 3079 28
2464 3076 3080 28
2465 3081 3082 28
2466 3081 3083 28
2467 3081 3084 28
2468 3081 3085 28
2469 3086 3087 28
2470 3086 3088 28
2471 3086 3089 28
2472 3086 3090 28
2473 3091 3092 28
2474 3091 3093 28
2475 3091 3094 28
2476 3091 3095 28
2477 3096 3097 28
2478 3096 3098 28
2479 3096 3099 28
2480 3096 3100 28
2481 3101 3102 28
2482 3101 3103 28
2483 3101 3104 28
2484 3101 3105 28
2485 3106 3107 28
2486 3106 3108 28
2487 3106 3109 28
2488 3106 3110 28
2489 3111 3112 28
2490 3111 3113 28
2491 3111 3114 28
2492 3111 3115 28
2493 3116 3117 28
2494 3116 3118 28
2495 3116 3119 28
2496 3116 3120 28
2497 3121 3122 28
2498 3121 3123 28
2499 3121 3124 28
2500 3121 3125 28
2501 3126 3127 28
2502 3126 3128 28
2503 3126 3129 28
2504 3126 3130 28
2505 3131 3132 28
2506 3131 3133 28
2507 3131 3134 28
2508 3131 3135 28
2509 3136 3137 28
2510 3136 3138 28
2511 3136 3139 28
2512 3136 3140 28
2513 3141 3142 28
2514 3141 3143 28
2515 3141 3144 28
2516 3141 3145 28
2517 3146 3147 28
2518 3146 3148 28
2519 3146 3149 28
2520 3146 3150 28
2521 3151 3152 28
2522 3151 3153 28
2523 3151 3154 28
2524 3151 3155 28
2525 3156 3157 28
2526 3156 3158 28
2527 3156 3159 28
2528 3156 3160 28
2529 3161 3162 28
2530 3161 3163 28
2531 3161 3164 28
2532 3161 3165 28
2533 3166 3167 28
2534 3166 3168 28
2535 3166 3169 28
2536 3166 3170 28
2537 3171 3172 28
2538 3171 3173 28
2539 3171 3174 28
2540 3171 3175 28
2541 3176 3177 28
2542 3176 3178 28
2543 3176 3179 28
2544 3176 3180 28
2545 3181 3182 28
2546 3181 3183 28
2547 3181 3184 28
2548 3181 3185 28
2549 3186 3187 28
2550 3186 3188 28
2551 3186 3189 28
2552 3186 3190 28
2553 3191 3192 28
2554 3191 3193 28
2555 3191 3194 28
2556 3191 3195 28
2557 3196 3197 28
2558 3196 3198 28
2559 3196 3199 28
2560 3196 3200 28
2561 3201 3202 28
2562 3201 3203 28
2563 3201 3204 28
2564 3201 3205 28
2565 3206 3207 28
2566 3206 3208 28
2567 3206 3209 28
2568 3206 3210 28
2569 3211 3212 28
2570 3211 3213 28
2571 3211 3214 28
2572 3211 3215 28
2573 3216 3217 28
2574 3216 3218 28
2575 3216 3219 28
2576 3216 3220 28
2577 3221 3222 28
2578 3221 3223 28
2579 3221 3224 28
2580 3221 3225 28
2581 3226 3227 28
2582 3226 3228 28
2583 3226 3229 28
2584 3226 3230 28
2585 3231 3232 28
2586 3231 3233 28
2587 3231 3234 28
2588 3231 3235 28
2589 3236 3237 28
2590 3236 3238 28
2591 3236 3239 28
2592 3236 3240 28
2593 3241 3242 28
2594 3241 3243 28
2595 3241 3244 28
2596 3241 3245 28
2597 3246 3247 28
2598 3246 3248 28
2599 3246 3249 28
2600 3246 3250 28
2601 3251 3252 28
2602 3251 3253 28
2603 3251 3254 28
2604 3251 3255 28
2605 3256 3257 28
2606 3256 3258 28
2607 3256 3259 28
2608 3256 3260 28
2609 3261 3262 28
2610 3261 3263 28
2611 3261 3264 28
2612 3261 3265 28
2613 3266 3267 28
2614 3266 3268 28
2615 3266 3269 28
2616 3266 3270 28
2617 3271 3272 28
2618 3271 3273 28
2619 3271 3274 28
2620 3271 3275 28
2621 3276 3277 28
2622 3276 3278 28
2623 3276 3279 28
2624 3276 3280 28
2625 3281 3282 28
2626 3281 3283 28
2627 3281 3284 28
2628 3281 3285 28
2629 3286 3287 28
2630 3286 3288 28
2631 3286 3289 28
2632 3286 3290 28
2633 3291 3292 28
2634 3291 3293 28
2635 3291 3294 28
2636 3291 3295 28
2637 3296 3297 28
2638 3296 3298 28
2639 3296 3299 28
2640 3296 3300 28
2641 3301 3302 28
2642 3301 3303 28
2643 3301 3304 28
2644 3301 3305 28
2645 3306 3307 28
2646 3306 3308 28
2647 3306 3309 28
2648 3306 3310 28
2649 3311 3312 28
2650 3311 3313 28
2651 3311 3314 28
2652 3311 3315 28
2653 3316 3317 28
2654 3316 3318 28
2655 3316 3319 28
2656 3316 3320 28
2657 3321 3322 28
2658 3321 3323 28
2659 3321 3324 28
2660 3321 3325 28
2661 3326 3327 28
2662 3326 3328 28
2663 3326 3329 28
2664 3326 3330 28
2665 3331 3332 28
2666 3331 3333 28
2667 3331 3334 28
2668 3331 3335 28
2669 3336 3337 28
2670 3336 3338 28
2671 3336 3339 28
2672 3336 3340 28
2673 3341 3342 28
2674 3341 3343 28
2675 3341 3344 28
2676 3341 3345 28
2677 3346 3347 28
2678 3346 3348 28
2679 3346 3349 28
2680 3346 3350 28
2681 3351 3352 28
2682 3351 3353 28
2683 3351 3354 28
2684 3351 3355 28
2685 3356 3357 28
2686 3356 3358 28
2687 3356 3359 28
2688 3356 3360 28
2689 3361 3362 28
2690 3361 3363 28
2691 3361 3364 28
2692 3361 3365 28
2693 3366 3367 28
2694 3366 3368 28
2695 3366 3369 28
2696 3366 3370 28
2697 3371 3372 28
2698 3371 3373 28
2699 3371 3374 28
2700 3371 3375 28
2701 3376 3377 28
2702 3376 3378 28
2703 3376 3379 28
2704 3376 3380 28
2705 3381 3382 28
2706 3381 3383 28
2707 3381 3384 28
2708 3381 3385 28
2709 3386 3387 28
2710 3386 3388 28
2711 3386 3389 28
2712 3386 3390 28
2713 3391 3392 28
2714 3391 3393 28
2715 3391 3394 28
2716 3391 3395 28
2717 3396 3397 28
2718 3396 3398 28
2719 3396 3399 28
2720 3396 3400 28
2721 3401 3402 28
2722 3401 3403 28
2723 3401 3404 28
2724 3401 3405 28
2725 3406 3407 28
2726 3406 3408 28
2727 3406 3409 28
2728 3406 3410 28
2729 3411 3412 28
2730 3411 3413 28
2731 3411 3414 28
2732 3411 3415 28
2733 3416 3417 28
2734 3416 3418 28
2735 3416 3419 28
2736 3416 3420 28
2737 3421 3422 28
2738 3421 3423 28
2739 3421 3424 28
2740 3421 3425 28
2741 3426 3427 28
2742 3426 3428 28
2743 3426 3429 28
2744 3426 3430 28
2745 3431 3432 28
2746 3431 3433 28
2747 3431 3434 28
2748 3431 3435 28
2749 3436 3437 28
2750 3436 3438 28
2751 3436 3439 28
2752 3436 3440 28
2753 3441 3442 28
2754 3441 3443 28
2755 3441 3444 28
2756 3441 3445 28
2757 3446 3447 28
2758 3446 3448 28
2759 3446 3449 28
2760 3446 3450 28
2761 3451 3452 28
2762 3451 3453 28
2763 3451 3454 28
2764 3451 3455 28
2765 3456 3457 28
2766 3456 3458 28
2767 3456 3459 28
2768 3456 3460 28
2769 3461 3462 28
2770 3461 3463 28
2771 3461 3464 28
2772 3461 3465 28
2773 3466 3467 28
2774 3466 3468 28
2775 3466 3469 28
2776 3466 3470 28
2777 3471 3472 28
2778 3471 3473 28
2779 3471 3474 28
2780 3471 3475 28
2781 3476 3477 28
2782 3476 3478 28
2783 3476 3479 28
2784 3476 3480 28
2785 3481 3482 28
2786 3481 3483 28
2787 3481 3484 28
2788 3481 3485 28
2789 3486 3487 28
2790 3486 3488 28
2791 3486 3489 28
2792 3486 3490 28
2793 3491 3492 28
2794 3491 3493 28
2795 3491 3494 28
2796 3491 3495 28
2797 3496 3497 28
2798 3496 3498 28
2799 3496 3499 28
2800 3496 3500 28
2801 3501 3502 28
2802 3501 3503 28
2803 3501 3504 28
2804 3501 3505 28
2805 3506 3507 28
2806 3506 3508 28
2807 3506 3509 28
2808 3506 3510 28
2809 3511 3512 28
2810 3511 3513 28
2811 3511 3514 28
2812 3511 3515 28
2813 3516 3517 28
2814 3516 3518 28
2815 3516 3519 28
2816 3516 3520 28
2817 3521 3522 28
2818 3521 3523 28
2819 3521 3524 28
2820 3521 3525 28
2821 3526 3527 28
2822 3526 3528 28
2823 3526 3529 28
2824 3526 3530 28
2825 3531 3532 28
2826 3531 3533 28
2827 3531 3534 28
2828 3531 3535 28
2829 3536 3537 28
2830 3536 3538 28
2831 3536 3539 28
2832 3536 3540 28
2833 3541 3542 28
2834 3541 3543 28
2835 3541 3544 28
2836 3541 3545 28
2837 3546 3547 28
2838 3546 3548 28
2839 3546 3549 28
2840 3546 3550 28
2841 3551 3552 28
2842 3551 3553 28
2843 3551 3554 28
2844 3551 3555 28
2845 3556 3557 28
2846 3556 3558 28
2847 3556 3559 28
2848 3556 3560 28
2849 3561 3562 28
2850 3561 3563 28
2851 3561 3564 28
2852 3561 3565 28
2853 3566 3567 28
2854 3566 3568 28
2855 3566 3569 28
2856 3566 3570 28
2857 3571 3572 28
2858 3571 3573 28
2859 3571 3574 28
2860 3571 3575 28
2861 3576 3577 28
2862 3576 3578 28
2863 3576 3579 28
2864 3576 3580 28
2865 3581 3582 28
2866 3581 3583 28
2867 3581 3584 28
2868 3581 3585 28
2869 3586 3587 28
2870 3586 3588 28
2871 3586 3589 28
2872 3586 3590 28
2873 3591 3592 28
2874 3591 3593 28
2875 3591 3594 28
2876 3591 3595 28
2877 3596 3597 28
2878 3596 3598 28
2879 3596 3599 28
2880 3596 3600 28
2881 3601 3602 28
2882 3601 3603 28
2883 3601 3604 28
2884 3601 3605 28
2885 3606 3607 28
2886 3606 3608 28
2887 3606 3609 28
2888 3606 3610 28
2889 3611 3612 28
2890 3611 3613 28
2891 3611 3614 28
2892 3611 3615 28
2893 3616 3617 28
2894 3616 3618 28
2895 3616 3619 28
2896 3616 3620 28
2897 3621 3622 28
2898 3621 3623 28
2899 3621 3624 28
2900 3621 3625 28
2901 3626 3627 28
2902 3626 3628 28
2903 3626 3629 28
2904 3626 3630 28
2905 3631 3632 28
2906 3631 3633 28
2907 3631 3634 28
2908 3631 3635 28
2909 3636 3637 28
2910 3636 3638 28
2911 3636 3639 28
2912 3636 3640 28
2913 3641 3642 28
2914 3641 3643 28
2915 3641 3644 28
2916 3641 3645 28
2917 3646 3647 28
2918 3646 3648 28
2919 3646 3649 28
2920 3646 3650 28
2921 3651 3652 28
2922 3651 3653 28
2923 3651 3654 28
2924 3651 3655 28
2925 3656 3657 28
2926 3656 3658 28
2927 3656 3659 28
2928 3656 3660 28
2929 3661 3662 28
2930 3661 3663 28
2931 3661 3664 28
2932 3661 3665 28
2933 3666 3667 28
2934 3666 3668 28
2935 3666 3669 28
2936 3666 3670 28
2937 3671 3672 28
2938 3671 3673 28
2939 3671 3674 28
2940 3671 3675 28
2941 3676 3677 28
2942 3676 3678 28
2943 3676 3679 28
2944 3676 3680 28
2945 3681 3682 28
2946 3681 3683 28
2947 3681 3684 28
2948 3681 3685 28
2949 3686 3687 28
2950 3686 3688 28
2951 3686 3689 28
2952 3686 3690 28
2953 3691 3692 28
2954 3691 3693 28
2955 3691 3694 28
2956 3691 3695 28
2957 3696 3697 28
2958 3696 3698 28
2959 3696 3699 28
2960 3696 3700 28
2961 3701 3702 28
2962 3701 3703 28
2963 3701 3704 28
2964 3701 3705 28
2965 3706 3707 28
2966 3706 3708 28
2967 3706 3709 28
2968 3706 3710 28
2969 3711 3712 28
2970 3711 3713 28
2971 3711 3714 28
2972 3711 3715 28
2973 3716 3717 28
2974 3716 3718 28
2975 3716 3719 28
2976 3716 3720 28
2977 3721 3722 28
2978 3721 3723 28
2979 3721 3724 28
2980 3721 3725 28
2981 3726 3727 28
2982 3726 3728 28
2983 3726 3729 28
2984 3726 3730 28
2985 3731 3732 28
2986 3731 3733 28
2987 3731 3734 28
2988 3731 3735 28
2989 3736 3737 28
2990 3736 3738 28
2991 3736 3739 28
2992 3736 3740 28
2993 3741 3742 28
2994 3741 3743 28
2995 3741 3744 28
2996 3741 3745 28
2997 3746 3747 28
2998 3746 3748 28
2999 3746 3749 28
3000 3746 3750 28
3001 3751 3752 28
3002 3751 3753 28
3003 3751 3754 28
3004 3751 3755 28
3005 3756 3757 28
3006 3756 3758 28
3007 3756 3759 28
3008 3756 3760 28
3009 3761 3762 28
3010 3761 3763 28
3011 3761 3764 28
3012 3761 3765 28
3013 3766 3767 28
3014 3766 3768 28
3015 3766 3769 28
3016 3766 3770 28
3017 3771 3772 28
3018 3771 3773 28
3019 3771 3774 28
3020 3771 3775 28
3021 3776 3777 28
3022 3776 3778 28
3023 3776 3779 28
3024 3776 3780 28
3025 3781 3782 28
3026 3781 3783 28
3027 3781 3784 28
3028 3781 3785 28
3029 3786 3787 28
3030 3786 3788 28
3031 3786 3789 28
3032 3786 3790 28
3033 3791 3792 28
3034 3791 3793 28
3035 3791 3794 28
3036 3791 3795 28
3037 3796 3797 28
3038 3796 3798 28
3039 3796 3799 28
3040 3796 3800 28
3041 3801 3802 28
3042 3801 3803 28
3043 3801 3804 28
3044 3801 3805 28
3045 3806 3807 28
3046 3806 3808 28
3047 3806 3809 28
3048 3806 3810 28
3049 3811 3812 28
3050 3811 3813 28
3051 3811 3814 28
3052 3811 3815 28
3053 3816 3817 28
3054 3816 3818 28
3055 3816 3819 28
3056 3816 3820 28
3057 3821 3822 28
3058 3821 3823 28
3059 3821 3824 28
3060 3821 3825 28
3061 3826 3827 28
3062 3826 3828 28
3063 3826 3829 28
3064 3826 3830 28
3065 3831 3832 28
3066 3831 3833 28
3067 3831 3834 28
3068 3831 3835 28
3069 3836 3837 28
3070 3836 3838 28
3071 3836 3839 28
3072 3836 3840 28
3073 3841 3842 28
3074 3841 3843 28
3075 3841 3844 28
3076 3841 3845 28
3077 3846 3847 28
3078 3846 3848 28
3079 3846 3849 28
3080 3846 3850 28
3081 3851 3852 28
3082 3851 3853 28
3083 3851 3854 28
3084 3851 3855 28
3085 3856 3857 28
3086 3856 3858 28
3087 3856 3859 28
3088 3856 3860 28
3089 3861 3862 28
3090 3861 3863 28
3091 3861 3864 28
3092 3861 3865 28
3093 3866 3867 28
3094 3866 3868 28
3095 3866 3869 28
3096 3866 3870 28
3097 3871 3872 28
3098 3871 3873 28
3099 3871 3874 28
3100 3871 3875 28
3101 3876 3877 28
3102 3876 3878 28
3103 3876 3879 28
3104 3876 3880 28
3105 3881 3882 28
3106 3881 3883 28
3107 3881 3884 28
3108 3881 3885 28
3109 3886 3887 28
3110 3886 3888 28
3111 3886 3889 28
3112 3886 3890 28
3113 3891 3892 28
3114 3891 3893 28
3115 3891 3894 28
3116 3891 3895 28
3117 3896 3897 28
3118 3896 3898 28
3119 3896 3899 28
3120 3896 3900 28
3121 3901 3902 28
3122 3901 3903 28
3123 3901 3904 28
3124 3901 3905 28
3125 3906 3907 28
3126 3906 3908 28
3127 3906 3909 28
3128 3906 3910 28
3129 3911 3912 28
3130 3911 3913 28
3131 3911 3914 28
3132 3911 3915 28
3133 3916 3917 28
3134 3916 3918 28
3135 3916 3919 28
3136 3916 3920 28
3137 3921 3922 28
3138 3921 3923 28
3139 3921 3924 28
3140 3921 3925 28
3141 3926 3927 28
3142 3926 3928 28
3143 3926 3929 28
3144 3926 3930 28
3145 3931 3932 28
3146 3931 3933 28
3147 3931 3934 28
3148 3931 3935 28
3149 3936 3937 28
3150 3936 3938 28
3151 3936 3939 28
3152 3936 3940 28
3153 3941 3942 28
3154 3941 3943 28
3155 3941 3944 28
3156 3941 3945 28
3157 3946 3947 28
3158 3946 3948 28
3159 3946 3949 28
3160 3946 3950 28
3161 3951 3952 28
3162 3951 3953 28
3163 3951 3954 28
3164 3951 3955 28
3165 3956 3957 28
3166 3956 3958 28
3167 3956 3959 28
3168 3956 3960 28
3169 3961 3962 28
3170 3961 3963 28
3171 3961 3964 28
3172 3961 3965 28
3173 3966 3967 28
3174 3966 3968 28
3175 3966 3969 28
3176 3966 3970 28
3177 3971 3972 28
3178 3971 3973 28
3179 3971 3974 28
3180 3971 3975 28
3181 3976 3977 28
3182 3976 3978 28
3183 3976 3979 28
3184 3976 3980 28
3185 3981 3982 28
3186 3981 3983 28
3187 3981 3984 28
3188 3981 3985 28
3189 3986 3987 28
3190 3986 3988 28
3191 3986 3989 28
3192 3986 3990 28
3193 3991 3992 28
3194 3991 3993 28
3195 3991 3994 28
3196 3991 3995 28
3197 3996 3997 28
3198 3996 3998 28
3199 3996 3999 28
3200 3996 4000 28
3201 4001 4002 28
3202 4001 4003 28
3203 4001 4004 28
3204 4001 4005 28
3205 4006 4007 28
3206 4006 4008 28
3207 4006 4009 28
3208 4006 4010 28
3209 4011 4012 28
3210 4011 4013 28
3211 4011 4014 28
3212 4011 4015 28
3213 4016 4017 28
3214 4016 4018 28
3215 4016 4019 28
3216 4016 4020 28
3217 4021 4022 28
3218 4021 4023 28
3219 4021 4024 28
3220 4021 4025 28
3221 4026 4027 28
3222 4026 4028 28
3223 4026 4029 28
3224 4026 4030 28
3225 4031 4032 28
3226 4031 4033 28
3227 4031 4034 28
3228 4031 4035 28
3229 4036 4037 28
3230 4036 4038 28
3231 4036 4039 28
3232 4036 4040 28
3233 4041 4042 28
3234 4041 4043 28
3235 4041 4044 28
3236 4041 4045 28
3237 4046 4047 28
3238 4046 4048 28
3239 4046 4049 28
3240 4046 4050 28
3241 4051 4052 28
3242 4051 4053 28
3243 4051 4054 28
3244 4051 4055 28
3245 4056 4057 28
3246 4056 4058 28
3247 4056 4059 28
3248 4056 4060 28
3249 4061 4062 28
3250 4061 4063 28
3251 4061 4064 28
3252 4061 4065 28
3253 4066 4067 28
3254 4066 4068 28
3255 4066 4069 28
3256 4066 4070 28
3257 4071 4072 28
3258 4071 4073 28
3259 4071 4074 28
3260 4071 4075 28
3261 4076 4077 28
3262 4076 4078 28
3263 4076 4079 28
3264 4076 4080 28
3265 4081 4082 28
3266 4081 4083 28
3267 4081 4084 28
3268 4081 4085 28
3269 4086 4087 28
3270 4086 4088 28
3271 4086 4089 28
3272 4086 4090 28
3273 4091 4092 28
3274 4091 4093 28
3275 4091 4094 28
3276 4091 4095 28
3277 4096 4097 28
3278 4096 4098 28
3279 4096 4099 28
3280 4096 4100 28
3281 4101 4102 28
3282 4101 4103 28
3283 4101 4104 28
3284 4101 4105 28
3285 4106 4107 28
3286 4106 4108 28
3287 4106 4109 28
3288 4106 4110 28
3289 4111 4112 28
3290 4111 4113 28
3291 4111 4114 28
3292 4111 4115 28
3293 4116 4117 28
3294 4116 4118 28
3295 4116 4119 28
3296 4116 4120 28
3297 4121 4122 28
3298 4121 4123 28
3299 4121 4124 28
3300 4121 4125 28
3301 4126 4127 28
3302 4126 4128 28
3303 4126 4129 28
3304 4126 4130 28
3305 4131 4132 28
3306 4131 4133 28
3307 4131 4134 28
3308 4131 4135 28
3309 4136 4137 28
3310 4136 4138 28
3311 4136 4139 28
3312 4136 4140 28
3313 4141 4142 28
3314 4141 4143 28
3315 4141 4144 28
3316 4141 4145 28
3317 4146 4147 28
3318 4146 4148 28
3319 4146 4149 28
3320 4146 4150 28
3321 4151 4152 28
3322 4151 4153 28
3323 4151 4154 28
3324 4151 4155 28
3325 4156 4157 28
3326 4156 4158 28
3327 4156 4159 28
3328 4156 4160 28
3329 4161 4162 28
3330 4161 4163 28
3331 4161 4164 28
3332 4161 4165 28
3333 4166 4167 28
3334 4166 4168 28
3335 4166 4169 28
3336 4166 4170 28
3337 4171 4172 28
3338 4171 4173 28
3339 4171 4174 28
3340 4171 4175 28
3341 4176 4177 28
3342 4176 4178 28
3343 4176 4179 28
3344 4176 4180 28
3345 4181 4182 28
3346 4181 4183 28
3347 4181 4184 28
3348 4181 4185 28
3349 4186 4187 28
3350 4186 4188 28
3351 4186 4189 28
3352 4186 4190 28
3353 4191 4192 28
3354 4191 4193 28
3355 4191 4194 28
3356 4191 4195 28
3357 4196 4197 28
3358 4196 4198 28
3359 4196 4199 28
3360 4196 4200 28
3361 4201 4202 28
3362 4201 4203 28
3363 4201 4204 28
3364 4201 4205 28
3365 4206 4207 28
3366 4206 4208 28
3367 4206 4209 28
3368 4206 4210 28
3369 4211 4212 28
3370 4211 4213 28
3371 4211 4214 28
3372 4211 4215 28
3373 4216 4217 28
3374 4216 4218 28
3375 4216 4219 28
3376 4216 4220 28
3377 4221 4222 28
3378 4221 4223 28
3379 4221 4224 28
3380 4221 4225 28
3381 4226 4227 28
3382 4226 4228 28
3383 4226 4229 28
3384 4226 4230 28
3385 4231 4232 28
3386 4231 4233 28
3387 4231 4234 28
3388 4231 4235 28
3389 4236 4237 28
3390 4236 4238 28
3391 4236 4239 28
3392 4236 4240 28
3393 4241 4242 28
3394 4241 4243 28
3395 4241 4244 28
3396 4241 4245 28
3397 4246 4247 28
3398 4246 4248 28
3399 4246 4249 28
3400 4246 4250 28
3401 4251 4252 28
3402 4251 4253 28
3403 4251 4254 28
3404 4251 4255 28
3405 4256 4257 28
3406 4256 4258 28
3407 4256 4259 28
3408 4256 4260 28
3409 4261 4262 28
3410 4261 4263 28
3411 4261 4264 28
3412 4261 4265 28
3413 4266 4267 28
3414 4266 4268 28
3415 4266 4269 28
3416 4266 4270 28
3417 4271 4272 28
3418 4271 4273 28
3419 4271 4274 28
3420 4271 4275 28
3421 4276 4277 28
3422 4276 4278 28
3423 4276 4279 28
3424 4276 4280 28
3425 4281 4282 28
3426 4281 4283 28
3427 4281 4284 28
3428 4281 4285 28
3429 4286 4287 28
3430 4286 4288 28
3431 4286 4289 28
3432 4286 4290 28
3433 4291 4292 28
3434 4291 4293 28
3435 4291 4294 28
3436 4291 4295 28
3437 4296 4297 28
3438 4296 4298 28
3439 4296 4299 28
3440 4296 4300 28
3441 4301 4302 28
3442 4301 4303 28
3443 4301 4304 28
3444 4301 4305 28
3445 4306 4307 28
3446 4306 4308 28
3447 4306 4309 28
3448 4306 4310 28
3449 4311 4312 28
3450 4311 4313 28
3451 4311 4314 28
3452 4311 4315 28
3453 4316 4317 28
3454 4316 4318 28
3455 4316 4319 28
3456 4316 4320 28
3457 4321 4322 28
3458 4321 4323 28
3459 4321 4324 28
3460 4321 4325 28
3461 4326 4327 28
3462 4326 4328 28
3463 4326 4329 28
3464 4326 4330 28
3465 4331 4332 28
3466 4331 4333 28
3467 4331 4334 28
3468 4331 4335 28
3469 4336 4337 28
3470 4336 4338 28
3471 4336 4339 28
3472 4336 4340 28
3473 4341 4342 28
3474 4341 4343 28
3475 4341 4344 28
3476 4341 4345 28
3477 4346 4347 28
3478 4346 4348 28
3479 4346 4349 28
3480 4346 4350 28
3481 4351 4352 28
3482 4351 4353 28
3483 4351 4354 28
3484 4351 4355 28
3485 4356 4357 28
3486 4356 4358 28
3487 4356 4359 28
3488 4356 4360 28
3489 4361 4362 28
3490 4361 4363 28
3491 4361 4364 28
3492 4361 4365 28
3493 4366 4367 28
3494 4366 4368 28
3495 4366 4369 28
3496 4366 4370 28
3497 4371 4372 28
3498 4371 4373 28
3499 4371 4374 28
3500 4371 4375 28
3501 4376 4377 28
3502 4376 4378 28
3503 4376 4379 28
3504 4376 4380 28
3505 4381 4382 28
3506 4381 4383 28
3507 4381 4384 28
3508 4381 4385 28
3509 4386 4387 28
3510 4386 4388 28
3511 4386 4389 28
3512 4386 4390 28
3513 4391 4392 28
3514 4391 4393 28
3515 4391 4394 28
3516 4391 4395 28
3517 4396 4397 28
3518 4396 4398 28
3519 4396 4399 28
3520 4396 4400 28
3521 4401 4402 28
3522 4401 4403 28
3523 4401 4404 28
3524 4401 4405 28
3525 4406 4407 28
3526 4406 4408 28
3527 4406 4409 28
3528 4406 4410 28
3529 4411 4412 28
3530 4411 4413 28
3531 4411 4414 28
3532 4411 4415 28
3533 4416 4417 28
3534 4416 4418 28
3535 4416 4419 28
3536 4416 4420 28
3537 4421 4422 28
3538 4421 4423 28
3539 4421 4424 28
3540 4421 4425 28
3541 4426 4427 28
3542 4426 4428 28
3543 4426 4429 28
3544 4426 4430 28
3545 4431 4432 28
3546 4431 4433 28
3547 4431 4434 28
3548 4431 4435 28
3549 4436 4437 28
3550 4436 4438 28
3551 4436 4439 28
3552 4436 4440 28
3553 4441 4442 28
3554 4441 4443 28
3555 4441 4444 28
3556 4441 4445 28
3557 4446 4447 28
3558 4446 4448 28
3559 4446 4449 28
3560 4446 4450 28
3561 4451 4452 28
3562 4451 4453 28
3563 4451 4454 28
3564 4451 4455 28
3565 4456 4457 28
3566 4456 4458 28
3567 4456 4459 28
3568 4456 4460 28
3569 4461 4462 28
3570 4461 4463 28
3571 4461 4464 28
3572 4461 4465 28
3573 4466 4467 28
3574 4466 4468 28
3575 4466 4469 28
3576 4466 4470 28
3577 4471 4472 28
3578 4471 4473 28
3579 4471 4474 28
3580 4471 4475 28
3581 4476 4477 28
3582 4476 4478 28
3583 4476 4479 28
3584 4476 4480 28
3585 4481 4482 28
3586 4481 4483 28
3587 4481 4484 28
3588 4481 4485 28
3589 4486 4487 28
3590 4486 4488 28
3591 4486 4489 28
3592 4486 4490 28
3593 4491 4492 28
3594 4491 4493 28
3595 4491 4494 28
3596 4491 4495 28
3597 4496 4497 28
3598 4496 4498 28
3599 4496 4499 28
3600 4496 4500 28
3601 4501 4502 28
3602 4501 4503 28
3603 4501 4504 28
3604 4501 4505 28
3605 4506 4507 28
3606 4506 4508 28
3607 4506 4509 28
3608 4506 4510 28
3609 4511 4512 28
3610 4511 4513 28
3611 4511 4514 28
3612 4511 4515 28
3613 4516 4517 28
3614 4516 4518 28
3615 4516 4519 28
3616 4516 4520 28
3617 4521 4522 28
3618 4521 4523 28
3619 4521 4524 28
3620 4521 4525 28
3621 4526 4527 28
3622 4526 4528 28
3623 4526 4529 28
3624 4526 4530 28
3625 4531 4532 28
3626 4531 4533 28
3627 4531 4534 28
3628 4531 4535 28
3629 4536 4537 28
3630 4536 4538 28
3631 4536 4539 28
3632 4536 4540 28
3633 4541 4542 28
3634 4541 4543 28
3635 4541 4544 28
3636 4541 4545 28
3637 4546 4547 28
3638 4546 4548 28
3639 4546 4549 28
3640 4546 4550 28
3641 4551 4552 28
3642 4551 4553 28
3643 4551 4554 28
3644 4551 4555 28
3645 4556 4557 28
3646 4556 4558 28
3647 4556 4559 28
3648 4556 4560 28
3649 4561 4562 28
3650 4561 4563 28
3651 4561 4564 28
3652 4561 4565 28
3653 4566 4567 28
3654 4566 4568 28
3655 4566 4569 28
3656 4566 4570 28
3657 4571 4572 28
3658 4571 4573 28
3659 4571 4574 28
3660 4571 4575 28
3661 4576 4577 28
3662 4576 4578 28
3663 4576 4579 28
3664 4576 4580 28
3665 4581 4582 28
3666 4581 4583 28
3667 4581 4584 28
3668 4581 4585 28
3669 4586 4587 28
3670 4586 4588 28
3671 4586 4589 28
3672 4586 4590 28
3673 4591 4592 28
3674 4591 4593 28
3675 4591 4594 28
3676 4591 4595 28
3677 4596 4597 28
3678 4596 4598 28
3679 4596 4599 28
3680 4596 4600 28
3681 4601 4602 28
3682 4601 4603 28
3683 4601 4604 28
3684 4601 4605 28
3685 4606 4607 28
3686 4606 4608 28
3687 4606 4609 28
3688 4606 4610 28
3689 4611 4612 28
3690 4611 4613 28
3691 4611 4614 28
3692 4611 4615 28
3693 4616 4617 28
3694 4616 4618 28
3695 4616 4619 28
3696 4616 4620 28
3697 4621 4622 28
3698 4621 4623 28
3699 4621 4624 28
3700 4621 4625 28
3701 4626 4627 28
3702 4626 4628 28
3703 4626 4629 28
3704 4626 4630 28
3705 4631 4632 28
3706 4631 4633 28
3707 4631 4634 28
3708 4631 4635 28
3709 4636 4637 28
3710 4636 4638 28
3711 4636 4639 28
3712 4636 4640 28
3713 4641 4642 28
3714 4641 4643 28
3715 4641 4644 28
3716 4641 4645 28
3717 4646 4647 28
3718 4646 4648 28
3719 4646 4649 28
3720 4646 4650 28
3721 4651 4652 28
3722 4651 4653 28
3723 4651 4654 28
3724 4651 4655 28
3725 4656 4657 28
3726 4656 4658 28
3727 4656 4659 28
3728 4656 4660 28
3729 4661 4662 28
3730 4661 4663 28
3731 4661 4664 28
3732 4661 4665 28
3733 4666 4667 28
3734 4666 4668 28
3735 4666 4669 28
3736 4666 4670 28
3737 4671 4672 28
3738 4671 4673 28
3739 4671 4674 28
3740 4671 4675 28
3741 4676 4677 28
3742 4676 4678 28
3743 4676 4679 28
3744 4676 4680 28
3745 4681 4682 28
3746 4681 4683 28
3747 4681 4684 28
3748 4681 4685 28
3749 4686 4687 28
3750 4686 4688 28
3751 4686 4689 28
3752 4686 4690 28
3753 4691 4692 28
3754 4691 4693 28
3755 4691 4694 28
3756 4691 4695 28
3757 4696 4697 28
3758 4696 4698 28
3759 4696 4699 28
3760 4696 4700 28
3761 4701 4702 28
3762 4701 4703 28
3763 4701 4704 28
3764 4701 4705 28
3765 4706 4707 28
3766 4706 4708 28
3767 4706 4709 28
3768 4706 4710 28
3769 4711 4712 28
3770 4711 4713 28
3771 4711 4714 28
3772 4711 4715 28
3773 4716 4717 28
3774 4716 4718 28
3775 4716 4719 28
3776 4716 4720 28
3777 4721 4722 28
3778 4721 4723 28
3779 4721 4724 28
3780 4721 4725 28
3781 4726 4727 28
3782 4726 4728 28
3783 4726 4729 28
3784 4726 4730 28
3785 4731 4732 28
3786 4731 4733 28
3787 4731 4734 28
3788 4731 4735 28
3789 4736 4737 28
3790 4736 4738 28
3791 4736 4739 28
3792 4736 4740 28
3793 4741 4742 28
3794 4741 4743 28
3795 4741 4744 28
3796 4741 4745 28
3797 4746 4747 28
3798 4746 4748 28
3799 4746 4749 28
3800 4746 4750 28
3801 4751 4752 28
3802 4751 4753 28
3803 4751 4754 28
3804 4751 4755 28
3805 4756 4757 28
3806 4756 4758 28
3807 4756 4759 28
3808 4756 4760 28
3809 4761 4762 28
3810 4761 4763 28
3811 4761 4764 28
3812 4761 4765 28
3813 4766 4767 28
3814 4766 4768 28
3815 4766 4769 28
3816 4766 4770 28
3817 4771 4772 28
3818 4771 4773 28
3819 4771 4774 28
3820 4771 4775 28
3821 4776 4777 28
3822 4776 4778 28
3823 4776 4779 28
3824 4776 4780 28
3825 4781 4782 28
3826 4781 4783 28
3827 4781 4784 28
3828 4781 4785 28
3829 4786 4787 28
3830 4786 4788 28
3831 4786 4789 28
3832 4786 4790 28
3833 4791 4792 28
3834 4791 4793 28
3835 4791 4794 28
3836 4791 4795 28
3837 4796 4797 28
3838 4796 4798 28
3839 4796 4799 28
3840 4796 4800 28
3841 4801 4802 28
3842 4801 4803 28
3843 4801 4804 28
3844 4801 4805 28
3845 4806 4807 28
3846 4806 4808 28
3847 4806 4809 28
3848 4806 4810 28
3849 4811 4812 28
3850 4811 4813 28
3851 4811 4814 28
3852 4811 4815 28
3853 4816 4817 28
3854 4816 4818 28
3855 4816 4819 28
3856 4816 4820 28
3857 4821 4822 28
3858 4821 4823 28
3859 4821 4824 28
3860 4821 4825 28
3861 4826 4827 28
3862 4826 4828 28
3863 4826 4829 28
3864 4826 4830 28
3865 4831 4832 28
3866 4831 4833 28
3867 4831 4834 28
3868 4831 4835 28
3869 4836 4837 28
3870 4836 4838 28
3871 4836 4839 28
3872 4836 4840 28
3873 4841 4842 28
3874 4841 4843 28
3875 4841 4844 28
3876 4841 4845 28
3877 4846 4847 28
3878 4846 4848 28
3879 4846 4849 28
3880 4846 4850 28
3881 4851 4852 28
3882 4851 4853 28
3883 4851 4854 28
3884 4851 4855 28
3885 4856 4857 28
3886 4856 4858 28
3887 4856 4859 28
3888 4856 4860 28
3889 4861 4862 28
3890 4861 4863 28
3891 4861 4864 28
3892 4861 4865 28
3893 4866 4867 28
3894 4866 4868 28
3895 4866 4869 28
3896 4866 4870 28
3897 4871 4872 28
3898 4871 4873 28
3899 4871 4874 28
3900 4871 4875 28
3901 4876 4877 28
3902 4876 4878 28
3903 4876 4879 28
3904 4876 4880 28
3905 4881 4882 28
3906 4881 4883 28
3907 4881 4884 28
3908 4881 4885 28
3909 4886 4887 28
3910 4886 4888 28
3911 4886 4889 28
3912 4886 4890 28
3913 4891 4892 28
3914 4891 4893 28
3915 4891 4894 28
3916 4891 4895 28
3917 4896 4897 28
3918 4896 4898 28
3919 4896 4899 28
3920 4896 4900 28
3921 4901 4902 28
3922 4901 4903 28
3923 4901 4904 28
3924 4901 4905 28
3925 4906 4907 28
3926 4906 4908 28
3927 4906 4909 28
3928 4906 4910 28
3929 4911 4912 28
3930 4911 4913 28
3931 4911 4914 28
3932 4911 4915 28
3933 4916 4917 28
3934 4916 4918 28
3935 4916 4919 28
3936 4916 4920 28
3937 4921 4922 28
3938 4921 4923 28
3939 4921 4924 28
3940 4921 4925 28
3941 4926 4927 28
3942 4926 4928 28
3943 4926 4929 28
3944 4926 4930 28
3945 4931 4932 28
3946 4931 4933 28
3947 4931 4934 28
3948 4931 4935 28
3949 4936 4937 28
3950 4936 4938 28
3951 4936 4939 28
3952 4936 4940 28
3953 4941 4942 28
3954 4941 4943 28
3955 4941 4944 28
3956 4941 4945 28
3957 4946 4947 28
3958 4946 4948 28
3959 4946 4949 28
3960 4946 4950 28
3961 4951 4952 28
3962 4951 4953 28
3963 4951 4954 28
3964 4951 4955 28
3965 4956 4957 28
3966 4956 4958 28
3967 4956 4959 28
3968 4956 4960 28
3969 4961 4962 28
3970 4961 4963 28
3971 4961 4964 28
3972 4961 4965 28
3973 4966 4967 28
3974 4966 4968 28
3975 4966 4969 28
3976 4966 4970 28
3977 4971 4972 28
3978 4971 4973 28
3979 4971 4974 28
3980 4971 4975 28
3981 4976 4977 28
3982 4976 4978 28
3983 4976 4979 28
3984 4976 4980 28
3985 4981 4982 28
3986 4981 4983 28
3987 4981 4984 28
3988 4981 4985 28
3989 4986 4987 28
3990 4986 4988 28
3991 4986 4989 28
3992 4986 4990 28
3993 4991 4992 28
3994 4991 4993 28
3995 4991 4994 28
3996 4991 4995 28
3997 4996 4997 28
3998 4996 4998 28
3999 4996 4999 28
4000 4996 5000 28
4001 5001 5002 28
4002 5001 5003 28
4003 5001 5004 28
4004 5001 5005 28
4005 5006 5007 28
4006 5006 5008 28
4007 5006 5009 28
4008 5006 5010 28
4009 5011 5012 28
4010 5011 5013 28
4011 5011 5014 28
4012 5011 5015 28
4013 5016 5017 28
4014 5016 5018 28
4015 5016 5019 28
4016 5016 5020 28
4017 5021 5022 28
4018 5021 5023 28
4019 5021 5024 28
4020 5021 5025 28
4021 5026 5027 28
4022 5026 5028 28
4023 5026 5029 28
4024 5026 5030 28
4025 5031 5032 28
4026 5031 5033 28
4027 5031 5034 28
4028 5031 5035 28
4029 5036 5037 28
4030 5036 5038 28
4031 5036 5039 28
4032 5036 5040 28
4033 5041 5042 28
4034 5041 5043 28
4035 5041 5044 28
4036 5041 5045 28
4037 5046 5047 28
4038 5046 5048 28
4039 5046 5049 28
4040 5046 5050 28
4041 5051 5052 28
4042 5051 5053 28
4043 5051 5054 28
4044 5051 5055 28
4045 5056 5057 28
4046 5056 5058 28
4047 5056 5059 28
4048 5056 5060 28
4049 5061 5062 28
4050 5061 5063 28
4051 5061 5064 28
4052 5061 5065 28
4053 5066 5067 28
4054 5066 5068 28
4055 5066 5069 28
4056 5066 5070 28
4057 5071 5072 28
4058 5071 5073 28
4059 5071 5074 28
4060 5071 5075 28
4061 5076 5077 28
4062 5076 5078 28
4063 5076 5079 28
4064 5076 5080 28
4065 5081 5082 28
4066 5081 5083 28
4067 5081 5084 28
4068 5081 5085 28
4069 5086 5087 28
4070 5086 5088 28
4071 5086 5089 28
4072 5086 5090 28
4073 5091 5092 28
4074 5091 5093 28
4075 5091 5094 28
4076 5091 5095 28
4077 5096 5097 28
4078 5096 5098 28
4079 5096 5099 28
4080 5096 5100 28
4081 5101 5102 28
4082 5101 5103 28
4083 5101 5104 28
4084 5101 5105 28
4085 5106 5107 28
4086 5106 5108 28
4087 5106 5109 28
4088 5106 5110 28
4089 5111 5112 28
4090 5111 5113 28
4091 5111 5114 28
4092 5111 5115 28
4093 5116 5117 28
4094 5116 5118 28
4095 5116 5119 28
4096 5116 5120 28
4097 5121 5122 28
4098 5121 5123 28
4099 5121 5124 28
4100 5121 5125 28
4101 5126 5127 28
4102 5126 5128 28
4103 5126 5129 28
4104 5126 5130 28
4105 5131 5132 28
4106 5131 5133 28
4107 5131 5134 28
4108 5131 5135 28
4109 5136 5137 28
4110 5136 5138 28
4111 5136 5139 28
4112 5136 5140 28
4113 5141 5142 28
4114 5141 5143 28
4115 5141 5144 28
4116 5141 5145 28
4117 5146 5147 28
4118 5146 5148 28
4119 5146 5149 28
4120 5146 5150 28
4121 5151 5152 28
4122 5151 5153 28
4123 5151 5154 28
4124 5151 5155 28
4125 5156 5157 28
4126 5156 5158 28
4127 5156 5159 28
4128 5156 5160 28
4129 5161 5162 28
4130 5161 5163 28
4131 5161 5164 28
4132 5161 5165 28
4133 5166 5167 28
4134 5166 5168 28
4135 5166 5169 28
4136 5166 5170 28
4137 5171 5172 28
4138 5171 5173 28
4139 5171 5174 28
4140 5171 5175 28
4141 5176 5177 28
4142 5176 5178 28
4143 5176 5179 28
4144 5176 5180 28
4145 5181 5182 28
4146 5181 5183 28
4147 5181 5184 28
4148 5181 5185 28
4149 5186 5187 28
4150 5186 5188 28
4151 5186 5189 28
4152 5186 5190 28
4153 5191 5192 28
4154 5191 5193 28
4155 5191 5194 28
4156 5191 5195 28
4157 5196 5197 28
4158 5196 5198 28
4159 5196 5199 28
4160 5196 5200 28
4161 5201 5202 28
4162 5201 5203 28
4163 5201 5204 28
4164 5201 5205 28
4165 5206 5207 28
4166 5206 5208 28
4167 5206 5209 28
4168 5206 5210 28
4169 5211 5212 28
4170 5211 5213 28
4171 5211 5214 28
4172 5211 5215 28
4173 5216 5217 28
4174 5216 5218 28
4175 5216 5219 28
4176 5216 5220 28
4177 5221 5222 28
4178 5221 5223 28
4179 5221 5224 28
4180 5221 5225 28
4181 5226 5227 28
4182 5226 5228 28
4183 5226 5229 28
4184 5226 5230 28
4185 5231 5232 28
4186 5231 5233 28
4187 5231 5234 28
4188 5231 5235 28
4189 5236 5237 28
4190 5236 5238 28
4191 5236 5239 28
4192 5236 5240 28
4193 5241 5242 28
4194 5241 5243 28
4195 5241 5244 28
4196 5241 5245 28
4197 5246 5247 28
4198 5246 5248 28
4199 5246 5249 28
4200 5246 5250 28
4201 5251 5252 28
4202 5251 5253 28
4203 5251 5254 28
4204 5251 5255 28
4205 5256 5257 28
4206 5256 5258 28
4207 5256 5259 28
4208 5256 5260 28
4209 5261 5262 28
4210 5261 5263 28
4211 5261 5264 28
4212 5261 5265 28
4213 5266 5267 28
4214 5266 5268 28
4215 5266 5269 28
4216 5266 5270 28
4217 5271 5272 28
4218 5271 5273 28
4219 5271 5274 28
4220 5271 5275 28
4221 5276 5277 28
4222 5276 5278 28
4223 5276 5279 28
4224 5276 5280 28
4225 5281 5282 28
4226 5281 5283 28
4227 5281 5284 28
4228 5281 5285 28
4229 5286 5287 28
4230 5286 5288 28
4231 5286 5289 28
4232 5286 5290 28
4233 5291 5292 28
4234 5291 5293 28
4235 5291 5294 28
4236 5291 5295 28
4237 5296 5297 28
4238 5296 5298 28
4239 5296 5299 28
4240 5296 5300 28
4241 5301 5302 28
4242 5301 5303 28
4243 5301 5304 28
4244 5301 5305 28
4245 5306 5307 28
4246 5306 5308 28
4247 5306 5309 28
4248 5306 5310 28
4249 5311 5312 28
4250 5311 5313 28
4251 5311 5314 28
4252 5311 5315 28
4253 5316 5317 28
4254 5316 5318 28
4255 5316 5319 28
4256 5316 5320 28
4257 5321 5322 28
4258 5321 5323 28
4259 5321 5324 28
4260 5321 5325 28
4261 5326 5327 28
4262 5326 5328 28
4263 5326 5329 28
4264 5326 5330 28
4265 5331 5332 28
4266 5331 5333 28
4267 5331 5334 28
4268 5331 5335 28
4269 5336 5337 28
4270 5336 5338 28
4271 5336 5339 28
4272 5336 5340 28
4273 5341 5342 28
4274 5341 5343 28
4275 5341 5344 28
4276 5341 5345 28
4277 5346 5347 28
4278 5346 5348 28
4279 5346 5349 28
4280 5346 5350 28
4281 5351 5352 28
4282 5351 5353 28
4283 5351 5354 28
4284 5351 5355 28
4285 5356 5357 28
4286 5356 5358 28
4287 5356 5359 28
4288 5356 5360 28
4289 5361 5362 28
4290 5361 5363 28
4291 5361 5364 28
4292 5361 5365 28
4293 5366 5367 28
4294 5366 5368 28
4295 5366 5369 28
4296 5366 5370 28
4297 5371 5372 28
4298 5371 5373 28
4299 5371 5374 28
4300 5371 5375 28
4301 5376 5377 28
4302 5376 5378 28
4303 5376 5379 28
4304 5376 5380 28
4305 5381 5382 28
4306 5381 5383 28
4307 5381 5384 28
4308 5381 5385 28
4309 5386 5387 28
4310 5386 5388 28
4311 5386 5389 28
4312 5386 5390 28
4313 5391 5392 28
4314 5391 5393 28
4315 5391 5394 28
4316 5391 5395 28
4317 5396 5397 28
4318 5396 5398 28
4319 5396 5399 28
4320 5396 5400 28
4321 5401 5402 28
4322 5401 5403 28
4323 5401 5404 28
4324 5401 5405 28
4325 5406 5407 28
4326 5406 5408 28
4327 5406 5409 28
4328 5406 5410 28
4329 5411 5412 28
4330 5411 5413 28
4331 5411 5414 28
4332 5411 5415 28
4333 5416 5417 28
4334 5416 5418 28
4335 5416 5419 28
4336 5416 5420 28
4337 5421 5422 28
4338 5421 5423 28
4339 5421 5424 28
4340 5421 5425 28
4341 5426 5427 28
4342 5426 5428 28
4343 5426 5429 28
4344 5426 5430 28
4345 5431 5432 28
4346 5431 5433 28
4347 5431 5434 28
4348 5431 5435 28
4349 5436 5437 28
4350 5436 5438 28
4351 5436 5439 28
4352 5436 5440 28
4353 5441 5442 28
4354 5441 5443 28
4355 5441 5444 28
4356 5441 5445 28
4357 5446 5447 28
4358 5446 5448 28
4359 5446 5449 28
4360 5446 5450 28
4361 5451 5452 28
4362 5451 5453 28
4363 5451 5454 28
4364 5451 5455 28
4365 5456 5457 28
4366 5456 5458 28
4367 5456 5459 28
4368 5456 5460 28
4369 5461 5462 28
4370 5461 5463 28
4371 5461 5464 28
4372 5461 5465 28
4373 5466 5467 28
4374 5466 5468 28
4375 5466 5469 28
4376 5466 5470 28
4377 5471 5472 28
4378 5471 5473 28
4379 5471 5474 28
4380 5471 5475 28
4381 5476 5477 28
4382 5476 5478 28
4383 5476 5479 28
4384 5476 5480 28
4385 5481 5482 28
4386 5481 5483 28
4387 5481 5484 28
4388 5481 5485 28
4389 5486 5487 28
4390 5486 5488 28
4391 5486 5489 28
4392 5486 5490 28
4393 5491 5492 28
4394 5491 5493 28
4395 5491 5494 28
4396 5491 5495 28
4397 5496 5497 28
4398 5496 5498 28
4399 5496 5499 28
4400 5496 5500 28
4401 5501 5502 28
4402 5501 5503 28
4403 5501 5504 28
4404 5501 5505 28
4405 5506 5507 28
4406 5506 5508 28
4407 5506 5509 28
4408 5506 5510 28
4409 5511 5512 28
4410 5511 5513 28
4411 5511 5514 28
4412 5511 5515 28
4413 5516 5517 28
4414 5516 5518 28
4415 5516 5519 28
4416 5516 5520 28
4417 5521 5522 28
4418 5521 5523 28
4419 5521 5524 28
4420 5521 5525 28
4421 5526 5527 28
4422 5526 5528 28
4423 5526 5529 28
4424 5526 5530 28
4425 5531 5532 28
4426 5531 5533 28
4427 5531 5534 28
4428 5531 5535 28
4429 5536 5537 28
4430 5536 5538 28
4431 5536 5539 28
4432 5536 5540 28
4433 5541 5542 28
4434 5541 5543 28
4435 5541 5544 28
4436 5541 5545 28
4437 5546 5547 28
4438 5546 5548 28
4439 5546 5549 28
4440 5546 5550 28
4441 5551 5552 28
4442 5551 5553 28
4443 5551 5554 28
4444 5551 5555 28
4445 5556 5557 28
4446 5556 5558 28
4447 5556 5559 28
4448 5556 5560 28
4449 5561 5562 28
4450 5561 5563 28
4451 5561 5564 28
4452 5561 5565 28
4453 5566 5567 28
4454 5566 5568 28
4455 5566 5569 28
4456 5566 5570 28
4457 5571 5572 28
4458 5571 5573 28
4459 5571 5574 28
4460 5571 5575 28
4461 5576 5577 28
4462 5576 5578 28
4463 5576 5579 28
4464 5576 5580 28
4465 5581 5582 28
4466 5581 5583 28
4467 5581 5584 28
4468 5581 5585 28
4469 5586 5587 28
4470 5586 5588 28
4471 5586 5589 28
4472 5586 5590 28
4473 5591 5592 28
4474 5591 5593 28
4475 5591 5594 28
4476 5591 5595 28
4477 5596 5597 28
4478 5596 5598 28
4479 5596 5599 28
4480 5596 5600 28
4481 5601 5602 28
4482 5601 5603 28
4483 5601 5604 28
4484 5601 5605 28
4485 5606 5607 28
4486 5606 5608 28
4487 5606 5609 28
4488 5606 5610 28
4489 5611 5612 28
4490 5611 5613 28
4491 5611 5614 28
4492 5611 5615 28
4493 5616 5617 28
4494 5616 5618 28
4495 5616 5619 28
4496 5616 5620 28
4497 5621 5622 28
4498 5621 5623 28
4499 5621 5624 28
4500 5621 5625 28
4501 5626 5627 28
4502 5626 5628 28
4503 5626 5629 28
4504 5626 5630 28
4505 5631 5632 28
4506 5631 5633 28
4507 5631 5634 28
4508 5631 5635 28
4509 5636 5637 28
4510 5636 5638 28
4511 5636 5639 28
4512 5636 5640 28
4513 5641 5642 28
4514 5641 5643 28
4515 5641 5644 28
4516 5641 5645 28
4517 5646 5647 28
4518 5646 5648 28
4519 5646 5649 28
4520 5646 5650 28
4521 5651 5652 28
4522 5651 5653 28
4523 5651 5654 28
4524 5651 5655 28
4525 5656 5657 28
4526 5656 5658 28
4527 5656 5659 28
4528 5656 5660 28
4529 5661 5662 28
4530 5661 5663 28
4531 5661 5664 28
4532 5661 5665 28
4533 5666 5667 28
4534 5666 5668 28
4535 5666 5669 28
4536 5666 5670 28
4537 5671 5672 28
4538 5671 5673 28
4539 5671 5674 28
4540 5671 5675 28
4541 5676 5677 28
4542 5676 5678 28
4543 5676 5679 28
4544 5676 5680 28
4545 5681 5682 28
4546 5681 5683 28
4547 5681 5684 28
4548 5681 5685 28
4549 5686 5687 28
4550 5686 5688 28
4551 5686 5689 28
4552 5686 5690 28
4553 5691 5692 28
4554 5691 5693 28
4555 5691 5694 28
4556 5691 5695 28
4557 5696 5697 28
4558 5696 5698 28
4559 5696 5699 28
4560 5696 5700 28
4561 5701 5702 28
4562 5701 5703 28
4563 5701 5704 28
4564 5701 5705 28
4565 5706 5707 28
4566 5706 5708 28
4567 5706 5709 28
4568 5706 5710 28
4569 5711 5712 28
4570 5711 5713 28
4571 5711 5714 28
4572 5711 5715 28
4573 5716 5717 28
4574 5716 5718 28
4575 5716 5719 28
4576 5716 5720 28
4577 5721 5722 28
4578 5721 5723 28
4579 5721 5724 28
4580 5721 5725 28
4581 5726 5727 28
4582 5726 5728 28
4583 5726 5729 28
4584 5726 5730 28
4585 5731 5732 28
4586 5731 5733 28
4587 5731 5734 28
4588 5731 5735 28
4589 5736 5737 28
4590 5736 5738 28
4591 5736 5739 28
4592 5736 5740 28
4593 5741 5742 28
4594 5741 5743 28
4595 5741 5744 28
4596 5741 5745 28
4597 5746 5747 28
4598 5746 5748 28
4599 5746 5749 28
4600 5746 5750 28
4601 5751 5752 28
4602 5751 5753 28
4603 5751 5754 28
4604 5751 5755 28
4605 5756 5757 28
4606 5756 5758 28
4607 5756 5759 28
4608 5756 5760 28
4609 5761 5762 28
4610 5761 5763 28
4611 5761 5764 28
4612 5761 5765 28
4613 5766 5767 28
4614 5766 5768 28
4615 5766 5769 28
4616 5766 5770 28
4617 5771 5772 28
4618 5771 5773 28
4619 5771 5774 28
4620 5771 5775 28
4621 5776 5777 28
4622 5776 5778 28
4623 5776 5779 28
4624 5776 5780 28
4625 5781 5782 28
4626 5781 5783 28
4627 5781 5784 28
4628 5781 5785 28
4629 5786 5787 28
4630 5786 5788 28
4631 5786 5789 28
4632 5786 5790 28
4633 5791 5792 28
4634 5791 5793 28
4635 5791 5794 28
4636 5791 5795 28
4637 5796 5797 28
4638 5796 5798 28
4639 5796 5799 28
4640 5796 5800 28
4641 5801 5802 28
4642 5801 5803 28
4643 5801 5804 28
4644 5801 5805 28
4645 5806 5807 28
4646 5806 5808 28
4647 5806 5809 28
4648 5806 5810 28
4649 5811 5812 28
4650 5811 5813 28
4651 5811 5814 28
4652 5811 5815 28
4653 5816 5817 28
4654 5816 5818 28
4655 5816 5819 28
4656 5816 5820 28
4657 5821 5822 28
4658 5821 5823 28
4659 5821 5824 28
4660 5821 5825 28
4661 5826 5827 28
4662 5826 5828 28
4663 5826 5829 28
4664 5826 5830 28
4665 5831 5832 28
4666 5831 5833 28
4667 5831 5834 28
4668 5831 5835 28
4669 5836 5837 28
4670 5836 5838 28
4671 5836 5839 28
4672 5836 5840 28
4673 5841 5842 28
4674 5841 5843 28
4675 5841 5844 28
4676 5841 5845 28
4677 5846 5847 28
4678 5846 5848 28
4679 5846 5849 28
4680 5846 5850 28
4681 5851 5852 28
4682 5851 5853 28
4683 5851 5854 28
4684 5851 5855 28
4685 5856 5857 28
4686 5856 5858 28
4687 5856 5859 28
4688 5856 5860 28
4689 5861 5862 28
4690 5861 5863 28
4691 5861 5864 28
4692 5861 5865 28
4693 5866 5867 28
4694 5866 5868 28
4695 5866 5869 28
4696 5866 5870 28
4697 5871 5872 28
4698 5871 5873 28
4699 5871 5874 28
4700 5871 5875 28
4701 5876 5877 28
4702 5876 5878 28
4703 5876 5879 28
4704 5876 5880 28
4705 5881 5882 28
4706 5881 5883 28
4707 5881 5884 28
4708 5881 5885 28
4709 5886 5887 28
4710 5886 5888 28
4711 5886 5889 28
4712 5886 5890 28
4713 5891 5892 28
4714 5891 5893 28
4715 5891 5894 28
4716 5891 5895 28
4717 5896 5897 28
4718 5896 5898 28
4719 5896 5899 28
4720 5896 5900 28
4721 5901 5902 28
4722 5901 5903 28
4723 5901 5904 28
4724 5901 5905 28
4725 5906 5907 28
4726 5906 5908 28
4727 5906 5909 28
4728 5906 5910 28
4729 5911 5912 28
4730 5911 5913 28
4731 5911 5914 28
4732 5911 5915 28
4733 5916 5917 28
4734 5916 5918 28
4735 5916 5919 28
4736 5916 5920 28
4737 5921 5922 28
4738 5921 5923 28
4739 5921 5924 28
4740 5921 5925 28
4741 5926 5927 28
4742 5926 5928 28
4743 5926 5929 28
4744 5926 5930 28
4745 5931 5932 28
4746 5931 5933 28
4747 5931 5934 28
4748 5931 5935 28
4749 5936 5937 28
4750 5936 5938 28
4751 5936 5939 28
4752 5936 5940 28
4753 5941 5942 28
4754 5941 5943 28
4755 5941 5944 28
4756 5941 5945 28
4757 5946 5947 28
4758 5946 5948 28
4759 5946 5949 28
4760 5946 5950 28
4761 5951 5952 28
4762 5951 5953 28
4763 5951 5954 28
4764 5951 5955 28
4765 5956 5957 28
4766 5956 5958 28
4767 5956 5959 28
4768 5956 5960 28
4769 5961 5962 28
4770 5961 5963 28
4771 5961 5964 28
4772 5961 5965 28
4773 5966 5967 28
4774 5966 5968 28
4775 5966 5969 28
4776 5966 5970 28
4777 5971 5972 28
4778 5971 5973 28
4779 5971 5974 28
4780 5971 5975 28
4781 5976 5977 28
4782 5976 5978 28
4783 5976 5979 28
4784 5976 5980 28
4785 5981 5982 28
4786 5981 5983 28
4787 5981 5984 28
4788 5981 5985 28
4789 5986 5987 28
4790 5986 5988 28
4791 5986 5989 28
4792 5986 5990 28
4793 5991 5992 28
4794 5991 5993 28
4795 5991 5994 28
4796 5991 5995 28
4797 5996 5997 28
4798 5996 5998 28
4799 5996 5999 28
4800 5996 6000 28
4801 6001 6002 28
4802 6001 6003 28
4803 6001 6004 28
4804 6001 6005 28
4805 6006 6007 28
4806 6006 6008 28
4807 6006 6009 28
4808 6006 6010 28
4809 6011 6012 28
4810 6011 6013 28
4811 6011 6014 28
4812 6011 6015 28
4813 6016 6017 28
4814 6016 6018 28
4815 6016 6019 28
4816 6016 6020 28
4817 6021 6022 28
4818 6021 6023 28
4819 6021 6024 28
4820 6021 6025 28
4821 6026 6027 28
4822 6026 6028 28
4823 6026 6029 28
4824 6026 6030 28
4825 6031 6032 28
4826 6031 6033 28
4827 6031 6034 28
4828 6031 6035 28
4829 6036 6037 28
4830 6036 6038 28
4831 6036 6039 28
4832 6036 6040 28
4833 6041 6042 28
4834 6041 6043 28
4835 6041 6044 28
4836 6041 6045 28
4837 6046 6047 28
4838 6046 6048 28
4839 6046 6049 28
4840 6046 6050 28
4841 6051 6052 28
4842 6051 6053 28
4843 6051 6054 28
4844 6051 6055 28
4845 6056 6057 28
4846 6056 6058 28
4847 6056 6059 28
4848 6056 6060 28
4849 6061 6062 28
4850 6061 6063 28
4851 6061 6064 28
4852 6061 6065 28
4853 6066 6067 28
4854 6066 6068 28
4855 6066 6069 28
4856 6066 6070 28
4857 6071 6072 28
4858 6071 6073 28
4859 6071 6074 28
4860 6071 6075 28
4861 6076 6077 28
4862 6076 6078 28
4863 6076 6079 28
4864 6076 6080 28
4865 6081 6082 28
4866 6081 6083 28
4867 6081 6084 28
4868 6081 6085 28
4869 6086 6087 28
4870 6086 6088 28
4871 6086 6089 28
4872 6086 6090 28
4873 6091 6092 28
4874 6091 6093 28
4875 6091 6094 28
4876 6091 6095 28
4877 6096 6097 28
4878 6096 6098 28
4879 6096 6099 28
4880 6096 6100 28
4881 6101 6102 28
4882 6101 6103 28
4883 6101 6104 28
4884 6101 6105 28
4885 6106 6107 28
4886 6106 6108 28
4887 6106 6109 28
4888 6106 6110 28
4889 6111 6112 28
4890 6111 6113 28
4891 6111 6114 28
4892 6111 6115 28
4893 6116 6117 28
4894 6116 6118 28
4895 6116 6119 28
4896 6116 6120 28
4897 6121 6122 28
4898 6121 6123 28
4899 6121 6124 28
4900 6121 6125 28
4901 6126 6127 28
4902 6126 6128 28
4903 6126 6129 28
4904 6126 6130 28
4905 6131 6132 28
4906 6131 6133 28
4907 6131 6134 28
4908 6131 6135 28
4909 6136 6137 28
4910 6136 6138 28
4911 6136 6139 28
4912 6136 6140 28
4913 6141 6142 28
4914 6141 6143 28
4915 6141 6144 28
4916 6141 6145 28
4917 6146 6147 28
4918 6146 6148 28
4919 6146 6149 28
4920 6146 6150 28
4921 6151 6152 28
4922 6151 6153 28
4923 6151 6154 28
4924 6151 6155 28
4925 6156 6157 28
4926 6156 6158 28
4927 6156 6159 28
4928 6156 6160 28
4929 6161 6162 28
4930 6161 6163 28
4931 6161 6164 28
4932 6161 6165 28
4933 6166 6167 28
4934 6166 6168 28
4935 6166 6169 28
4936 6166 6170 28
4937 6171 6172 28
4938 6171 6173 28
4939 6171 6174 28
4940 6171 6175 28
4941 6176 6177 28
4942 6176 6178 28
4943 6176 6179 28
4944 6176 6180 28
4945 6181 6182 28
4946 6181 6183 28
4947 6181 6184 28
4948 6181 6185 28
4949 6186 6187 28
4950 6186 6188 28
4951 6186 6189 28
4952 6186 6190 28
4953 6191 6192 28
4954 6191 6193 28
4955 6191 6194 28
4956 6191 6195 28
4957 6196 6197 28
4958 6196 6198 28
4959 6196 6199 28
4960 6196 6200 28
4961 6201 6202 28
4962 6201 6203 28
4963 6201 6204 28
4964 6201 6205 28
4965 6206 6207 28
4966 6206 6208 28
4967 6206 6209 28
4968 6206 6210 28
4969 6211 6212 28
4970 6211 6213 28
4971 6211 6214 28
4972 6211 6215 28
4973 6216 6217 28
4974 6216 6218 28
4975 6216 6219 28
4976 6216 6220 28
4977 6221 6222 28
4978 6221 6223 28
4979 6221 6224 28
4980 6221 6225 28
4981 6226 6227 28
4982 6226 6228 28
4983 6226 6229 28
4984 6226 6230 28
4985 6231 6232 28
4986 6231 6233 28
4987 6231 6234 28
4988 6231 6235 28
4989 6236 6237 28
4990 6236 6238 28
4991 6236 6239 28
4992 6236 6240 28
4993 6241 6242 28
4994 6241 6243 28
4995 6241 6244 28
4996 6241 6245 28
4997 6246 6247 28
4998 6246 6248 28
4999 6246 6249 28
5000 6246 6250 28
5001 6251 6252 28
5002 6251 6253 28
5003 6251 6254 28
5004 6251 6255 28
5005 6256 6257 28
5006 6256 6258 28
5007 6256 6259 28
5008 6256 6260 28
5009 6261 6262 28
5010 6261 6263 28
5011 6261 6264 28
5012 6261 6265 28
5013 6266 6267 28
5014 6266 6268 28
5015 6266 6269 28
5016 6266 6270 28
5017 6271 6272 28
5018 6271 6273 28
5019 6271 6274 28
5020 6271 6275 28
5021 6276 6277 28
5022 6276 6278 28
5023 6276 6279 28
5024 6276 6280 28
5025 6281 6282 28
5026 6281 6283 28
5027 6281 6284 28
5028 6281 6285 28
5029 6286 6287 28
5030 6286 6288 28
5031 6286 6289 28
5032 6286 6290 28
5033 6291 6292 28
5034 6291 6293 28
5035 6291 6294 28
5036 6291 6295 28
5037 6296 6297 28
5038 6296 6298 28
5039 6296 6299 28
5040 6296 6300 28
5041 6301 6302 28
5042 6301 6303 28
5043 6301 6304 28
5044 6301 6305 28
5045 6306 6307 28
5046 6306 6308 28
5047 6306 6309 28
5048 6306 6310 28
5049 6311 6312 28
5050 6311 6313 28
5051 6311 6314 28
5052 6311 6315 28
5053 6316 6317 28
5054 6316 6318 28
5055 6316 6319 28
5056 6316 6320 28
5057 6321 6322 28
5058 6321 6323 28
5059 6321 6324 28
5060 6321 6325 28
5061 6326 6327 28
5062 6326 6328 28
5063 6326 6329 28
5064 6326 6330 28
5065 6331 6332 28
5066 6331 6333 28
5067 6331 6334 28
5068 6331 6335 28
5069 6336 6337 28
5070 6336 6338 28
5071 6336 6339 28
5072 6336 6340 28
5073 6341 6342 28
5074 6341 6343 28
5075 6341 6344 28
5076 6341 6345 28
5077 6346 6347 28
5078 6346 6348 28
5079 6346 6349 28
5080 6346 6350 28
5081 6351 6352 28
5082 6351 6353 28
5083 6351 6354 28
5084 6351 6355 28
5085 6356 6357 28
5086 6356 6358 28
5087 6356 6359 28
5088 6356 6360 28
5089 6361 6362 28
5090 6361 6363 28
5091 6361 6364 28
5092 6361 6365 28
5093 6366 6367 28
5094 6366 6368 28
5095 6366 6369 28
5096 6366 6370 28
5097 6371 6372 28
5098 6371 6373 28
5099 6371 6374 28
5100 6371 6375 28
5101 6376 6377 28
5102 6376 6378 28
5103 6376 6379 28
5104 6376 6380 28
5105 6381 6382 28
5106 6381 6383 28
5107 6381 6384 28
5108 6381 6385 28
5109 6386 6387 28
5110 6386 6388 28
5111 6386 6389 28
5112 6386 6390 28
5113 6391 6392 28
5114 6391 6393 28
5115 6391 6394 28
5116 6391 6395 28
5117 6396 6397 28
5118 6396 6398 28
5119 6396 6399 28
5120 6396 6400 28
5121 6401 6402 28
5122 6401 6403 28
5123 6401 6404 28
5124 6401 6405 28
5125 6406 6407 28
5126 6406 6408 28
5127 6406 6409 28
5128 6406 6410 28
5129 6411 6412 28
5130 6411 6413 28
5131 6411 6414 28
5132 6411 6415 28
5133 6416 6417 28
5134 6416 6418 28
5135 6416 6419 28
5136 6416 6420 28
5137 6421 6422 28
5138 6421 6423 28
5139 6421 6424 28
5140 6421 6425 28
5141 6426 6427 28
5142 6426 6428 28
5143 6426 6429 28
5144 6426 6430 28
5145 6431 6432 28
5146 6431 6433 28
5147 6431 6434 28
5148 6431 6435 28
5149 6436 6437 28
5150 6436 6438 28
5151 6436 6439 28
5152 6436 6440 28
5153 6441 6442 28
5154 6441 6443 28
5155 6441 6444 28
5156 6441 6445 28
5157 6446 6447 28
5158 6446 6448 28
5159 6446 6449 28
5160 6446 6450 28
5161 6451 6452 28
5162 6451 6453 28
5163 6451 6454 28
5164 6451 6455 28
5165 6456 6457 28
5166 6456 6458 28
5167 6456 6459 28
5168 6456 6460 28
5169 6461 6462 28
5170 6461 6463 28
5171 6461 6464 28
5172 6461 6465 28
5173 6466 6467 28
5174 6466 6468 28
5175 6466 6469 28
5176 6466 6470 28
5177 6471 6472 28
5178 6471 6473 28
5179 6471 6474 28
5180 6471 6475 28
5181 6476 6477 28
5182 6476 6478 28
5183 6476 6479 28
5184 6476 6480 28
5185 6481 6482 28
5186 6481 6483 28
5187 6481 6484 28
5188 6481 6485 28
5189 6486 6487 28
5190 6486 6488 28
5191 6486 6489 28
5192 6486 6490 28
5193 6491 6492 28
5194 6491 6493 28
5195 6491 6494 28
5196 6491 6495 28
5197 6496 6497 28
5198 6496 6498 28
5199 6496 6499 28
5200 6496 6500 28
5201 6501 6502 28
5202 6501 6503 28
5203 6501 6504 28
5204 6501 6505 28
5205 6506 6507 28
5206 6506 6508 28
5207 6506 6509 28
5208 6506 6510 28
5209 6511 6512 28
5210 6511 6513 28
5211 6511 6514 28
5212 6511 6515 28
5213 6516 6517 28
5214 6516 6518 28
5215 6516 6519 28
5216 6516 6520 28
5217 6521 6522 28
5218 6521 6523 28
5219 6521 6524 28
5220 6521 6525 28
5221 6526 6527 28
5222 6526 6528 28
5223 6526 6529 28
5224 6526 6530 28
5225 6531 6532 28
5226 6531 6533 28
5227 6531 6534 28
5228 6531 6535 28
5229 6536 6537 28
5230 6536 6538 28
5231 6536 6539 28
5232 6536 6540 28
5233 6541 6542 28
5234 6541 6543 28
5235 6541 6544 28
5236 6541 6545 28
5237 6546 6547 28
5238 6546 6548 28
5239 6546 6549 28
5240 6546 6550 28
5241 6551 6552 28
5242 6551 6553 28
5243 6551 6554 28
5244 6551 6555 28
5245 6556 6557 28
5246 6556 6558 28
5247 6556 6559 28
5248 6556 6560 28
5249 6561 6562 28
5250 6561 6563 28
5251 6561 6564 28
5252 6561 6565 28
5253 6566 6567 28
5254 6566 6568 28
5255 6566 6569 28
5256 6566 6570 28
5257 6571 6572 28
5258 6571 6573 28
5259 6571 6574 28
5260 6571 6575 28
5261 6576 6577 28
5262 6576 6578 28
5263 6576 6579 28
5264 6576 6580 28
5265 6581 6582 28
5266 6581 6583 28
5267 6581 6584 28
5268 6581 6585 28
5269 6586 6587 28
5270 6586 6588 28
5271 6586 6589 28
5272 6586 6590 28
5273 6591 6592 28
5274 6591 6593 28
5275 6591 6594 28
5276 6591 6595 28
5277 6596 6597 28
5278 6596 6598 28
5279 6596 6599 28
5280 6596 6600 28
5281 6601 6602 28
5282 6601 6603 28
5283 6601 6604 28
5284 6601 6605 28
5285 6606 6607 28
5286 6606 6608 28
5287 6606 6609 28
5288 6606 6610 28
5289 6611 6612 28
5290 6611 6613 28
5291 6611 6614 28
5292 6611 6615 28
5293 6616 6617 28
5294 6616 6618 28
5295 6616 6619 28
5296 6616 6620 28
5297 6621 6622 28
5298 6621 6623 28
5299 6621 6624 28
5300 6621 6625 28
5301 6626 6627 28
5302 6626 6628 28
5303 6626 6629 28
5304 6626 6630 28
5305 6631 6632 28
5306 6631 6633 28
5307 6631 6634 28
5308 6631 6635 28
5309 6636 6637 28
5310 6636 6638 28
5311 6636 6639 28
5312 6636 6640 28
5313 6641 6642 28
5314 6641 6643 28
5315 6641 6644 28
5316 6641 6645 28
5317 6646 6647 28
5318 6646 6648 28
5319 6646 6649 28
5320 6646 6650 28
5321 6651 6652 28
5322 6651 6653 28
5323 6651 6654 28
5324 6651 6655 28
5325 6656 6657 28
5326 6656 6658 28
5327 6656 6659 28
5328 6656 6660 28
5329 6661 6662 28
5330 6661 6663 28
5331 6661 6664 28
5332 6661 6665 28
5333 6666 6667 28
5334 6666 6668 28
5335 6666 6669 28
5336 6666 6670 28
5337 6671 6672 28
5338 6671 6673 28
5339 6671 6674 28
5340 6671 6675 28
5341 6676 6677 28
5342 6676 6678 28
5343 6676 6679 28
5344 6676 6680 28
5345 6681 6682 28
5346 6681 6683 28
5347 6681 6684 28
5348 6681 6685 28
5349 6686 6687 28
5350 6686 6688 28
5351 6686 6689 28
5352 6686 6690 28
5353 6691 6692 28
5354 6691 6693 28
5355 6691 6694 28
5356 6691 6695 28
5357 6696 6697 28
5358 6696 6698 28
5359 6696 6699 28
5360 6696 6700 28
5361 6701 6702 28
5362 6701 6703 28
5363 6701 6704 28
5364 6701 6705 28
5365 6706 6707 28
5366 6706 6708 28
5367 6706 6709 28
5368 6706 6710 28
5369 6711 6712 28
5370 6711 6713 28
5371 6711 6714 28
5372 6711 6715 28
5373 6716 6717 28
5374 6716 6718 28
5375 6716 6719 28
5376 6716 6720 28
5377 6721 6722 28
5378 6721 6723 28
5379 6721 6724 28
5380 6721 6725 28
5381 6726 6727 28
5382 6726 6728 28
5383 6726 6729 28
5384 6726 6730 28
5385 6731 6732 28
5386 6731 6733 28
5387 6731 6734 28
5388 6731 6735 28
5389 6736 6737 28
5390 6736 6738 28
5391 6736 6739 28
5392 6736 6740 28
5393 6741 6742 28
5394 6741 6743 28
5395 6741 6744 28
5396 6741 6745 28
5397 6746 6747 28
5398 6746 6748 28
5399 6746 6749 28
5400 6746 6750 28
5401 6751 6752 28
5402 6751 6753 28
5403 6751 6754 28
5404 6751 6755 28
5405 6756 6757 28
5406 6756 6758 28
5407 6756 6759 28
5408 6756 6760 28
5409 6761 6762 28
5410 6761 6763 28
5411 6761 6764 28
5412 6761 6765 28
5413 6766 6767 28
5414 6766 6768 28
5415 6766 6769 28
5416 6766 6770 28
5417 6771 6772 28
5418 6771 6773 28
5419 6771 6774 28
5420 6771 6775 28
5421 6776 6777 28
5422 6776 6778 28
5423 6776 6779 28
5424 6776 6780 28
5425 6781 6782 28
5426 6781 6783 28
5427 6781 6784 28
5428 6781 6785 28
5429 6786 6787 28
5430 6786 6788 28
5431 6786 6789 28
5432 6786 6790 28
5433 6791 6792 28
5434 6791 6793 28
5435 6791 6794 28
5436 6791 6795 28
5437 6796 6797 28
5438 6796 6798 28
5439 6796 6799 28
5440 6796 6800 28
5441 6801 6802 28
5442 6801 6803 28
5443 6801 6804 28
5444 6801 6805 28
5445 6806 6807 28
5446 6806 6808 28
5447 6806 6809 28
5448 6806 6810 28
5449 6811 6812 28
5450 6811 6813 28
5451 6811 6814 28
5452 6811 6815 28
5453 6816 6817 28
5454 6816 6818 28
5455 6816 6819 28
5456 6816 6820 28
5457 6821 6822 28
5458 6821 6823 28
5459 6821 6824 28
5460 6821 6825 28
5461 6826 6827 28
5462 6826 6828 28
5463 6826 6829 28
5464 6826 6830 28
5465 6831 6832 28
5466 6831 6833 28
5467 6831 6834 28
5468 6831 6835 28
5469 6836 6837 28
5470 6836 6838 28
5471 6836 6839 28
5472 6836 6840 28
5473 6841 6842 28
5474 6841 6843 28
5475 6841 6844 28
5476 6841 6845 28
5477 6846 6847 28
5478 6846 6848 28
5479 6846 6849 28
5480 6846 6850 28
5481 6851 6852 28
5482 6851 6853 28
5483 6851 6854 28
5484 6851 6855 28
5485 6856 6857 28
5486 6856 6858 28
5487 6856 6859 28
5488 6856 6860 28
5489 6861 6862 28
5490 6861 6863 28
5491 6861 6864 28
5492 6861 6865 28
5493 6866 6867 28
5494 6866 6868 28
5495 6866 6869 28
5496 6866 6870 28
5497 6871 6872 28
5498 6871 6873 28
5499 6871 6874 28
5500 6871 6875 28
5501 6876 6877 28
5502 6876 6878 28
5503 6876 6879 28
5504 6876 6880 28
5505 6881 6882 28
5506 6881 6883 28
5507 6881 6884 28
5508 6881 6885 28
5509 6886 6887 28
5510 6886 6888 28
5511 6886 6889 28
5512 6886 6890 28
5513 6891 6892 28
5514 6891 6893 28
5515 6891 6894 28
5516 6891 6895 28
5517 6896 6897 28
5518 6896 6898 28
5519 6896 6899 28
5520 6896 6900 28
5521 6901 6902 28
5522 6901 6903 28
5523 6901 6904 28
5524 6901 6905 28
5525 6906 6907 28
5526 6906 6908 28
5527 6906 6909 28
5528 6906 6910 28
5529 6911 6912 28
5530 6911 6913 28
5531 6911 6914 28
5532 6911 6915 28
5533 6916 6917 28
5534 6916 6918 28
5535 6916 6919 28
5536 6916 6920 28
5537 6921 6922 28
5538 6921 6923 28
5539 6921 6924 28
5540 6921 6925 28
5541 6926 6927 28
5542 6926 6928 28
5543 6926 6929 28
5544 6926 6930 28
5545 6931 6932 28
5546 6931 6933 28
5547 6931 6934 28
5548 6931 6935 28
5549 6936 6937 28
5550 6936 6938 28
5551 6936 6939 28
5552 6936 6940 28
5553 6941 6942 28
5554 6941 6943 28
5555 6941 6944 28
5556 6941 6945 28
5557 6946 6947 28
5558 6946 6948 28
5559 6946 6949 28
5560 6946 6950 28
5561 6951 6952 28
5562 6951 6953 28
5563 6951 6954 28
5564 6951 6955 28
5565 6956 6957 28
5566 6956 6958 28
5567 6956 6959 28
5568 6956 6960 28
5569 6961 6962 28
5570 6961 6963 28
5571 6961 6964 28
5572 6961 6965 28
5573 6966 6967 28
5574 6966 6968 28
5575 6966 6969 28
5576 6966 6970 28
5577 6971 6972 28
5578 6971 6973 28
5579 6971 6974 28
5580 6971 6975 28
5581 6976 6977 28
5582 6976 6978 28
5583 6976 6979 28
5584 6976 6980 28
5585 6981 6982 28
5586 6981 6983 28
5587 6981 6984 28
5588 6981 6985 28
5589 6986 6987 28
5590 6986 6988 28
5591 6986 6989 28
5592 6986 6990 28
5593 6991 6992 28
5594 6991 6993 28
5595 6991 6994 28
5596 6991 6995 28
5597 6996 6997 28
5598 6996 6998 28
5599 6996 6999 28
5600 6996 7000 28
5601 7001 7002 28
5602 7001 7003 28
5603 7001 7004 28
5604 7001 7005 28
5605 7006 7007 28
5606 7006 7008 28
5607 7006 7009 28
5608 7006 7010 28
5609 7011 7012 28
5610 7011 7013 28
5611 7011 7014 28
5612 7011 7015 28
5613 7016 7017 28
5614 7016 7018 28
5615 7016 7019 28
5616 7016 7020 28
5617 7021 7022 28
5618 7021 7023 28
5619 7021 7024 28
5620 7021 7025 28
5621 7026 7027 28
5622 7026 7028 28
5623 7026 7029 28
5624 7026 7030 28
5625 7031 7032 28
5626 7031 7033 28
5627 7031 7034 28
5628 7031 7035 28
5629 7036 7037 28
5630 7036 7038 28
5631 7036 7039 28
5632 7036 7040 28
5633 7041 7042 28
5634 7041 7043 28
5635 7041 7044 28
5636 7041 7045 28
5637 7046 7047 28
5638 7046 7048 28
5639 7046 7049 28
5640 7046 7050 28
5641 7051 7052 28
5642 7051 7053 28
5643 7051 7054 28
5644 7051 7055 28
5645 7056 7057 28
5646 7056 7058 28
5647 7056 7059 28
5648 7056 7060 28
5649 7061 7062 28
5650 7061 7063 28
5651 7061 7064 28
5652 7061 7065 28
5653 7066 7067 28
5654 7066 7068 28
5655 7066 7069 28
5656 7066 7070 28
5657 7071 7072 28
5658 7071 7073 28
5659 7071 7074 28
5660 7071 7075 28
5661 7076 7077 28
5662 7076 7078 28
5663 7076 7079 28
5664 7076 7080 28
5665 7081 7082 28
5666 7081 7083 28
5667 7081 7084 28
5668 7081 7085 28
5669 7086 7087 28
5670 7086 7088 28
5671 7086 7089 28
5672 7086 7090 28
5673 7091 7092 28
5674 7091 7093 28
5675 7091 7094 28
5676 7091 7095 28
5677 7096 7097 28
5678 7096 7098 28
5679 7096 7099 28
5680 7096 7100 28
5681 7101 7102 28
5682 7101 7103 28
5683 7101 7104 28
5684 7101 7105 28
5685 7106 7107 28
5686 7106 7108 28
5687 7106 7109 28
5688 7106 7110 28
5689 7111 7112 28
5690 7111 7113 28
5691 7111 7114 28
5692 7111 7115 28
5693 7116 7117 28
5694 7116 7118 28
5695 7116 7119 28
5696 7116 7120 28
5697 7121 7122 28
5698 7121 7123 28
5699 7121 7124 28
5700 7121 7125 28
5701 7126 7127 28
5702 7126 7128 28
5703 7126 7129 28
5704 7126 7130 28
5705 7131 7132 28
5706 7131 7133 28
5707 7131 7134 28
5708 7131 7135 28
5709 7136 7137 28
5710 7136 7138 28
5711 7136 7139 28
5712 7136 7140 28
5713 7141 7142 28
5714 7141 7143 28
5715 7141 7144 28
5716 7141 7145 28
5717 7146 7147 28
5718 7146 7148 28
5719 7146 7149 28
5720 7146 7150 28
5721 7151 7152 28
5722 7151 7153 28
5723 7151 7154 28
5724 7151 7155 28
5725 7156 7157 28
5726 7156 7158 28
5727 7156 7159 28
5728 7156 7160 28
5729 7161 7162 28
5730 7161 7163 28
5731 7161 7164 28
5732 7161 7165 28
5733 7166 7167 28
5734 7166 7168 28
5735 7166 7169 28
5736 7166 7170 28
5737 7171 7172 28
5738 7171 7173 28
5739 7171 7174 28
5740 7171 7175 28
5741 7176 7177 28
5742 7176 7178 28
5743 7176 7179 28
5744 7176 7180 28
5745 7181 7182 28
5746 7181 7183 28
5747 7181 7184 28
5748 7181 7185 28
5749 7186 7187 28
5750 7186 7188 28
5751 7186 7189 28
5752 7186 7190 28
5753 7191 7192 28
5754 7191 7193 28
5755 7191 7194 28
5756 7191 7195 28
5757 7196 7197 28
5758 7196 7198 28
5759 7196 7199 28
5760 7196 7200 28
5761 7201 7202 28
5762 7201 7203 28
5763 7201 7204 28
5764 7201 7205 28
5765 7206 7207 28
5766 7206 7208 28
5767 7206 7209 28
5768 7206 7210 28
5769 7211 7212 28
5770 7211 7213 28
5771 7211 7214 28
5772 7211 7215 28
5773 7216 7217 28
5774 7216 7218 28
5775 7216 7219 28
5776 7216 7220 28
5777 7221 7222 28
5778 7221 7223 28
5779 7221 7224 28
5780 7221 7225 28
5781 7226 7227 28
5782 7226 7228 28
5783 7226 7229 28
5784 7226 7230 28
5785 7231 7232 28
5786 7231 7233 28
5787 7231 7234 28
5788 7231 7235 28
5789 7236 7237 28
5790 7236 7238 28
5791 7236 7239 28
5792 7236 7240 28
5793 7241 7242 28
5794 7241 7243 28
5795 7241 7244 28
5796 7241 7245 28
5797 7246 7247 28
5798 7246 7248 28
5799 7246 7249 28
5800 7246 7250 28
5801 7251 7252 28
5802 7251 7253 28
5803 7251 7254 28
5804 7251 7255 28
5805 7256 7257 28
5806 7256 7258 28
5807 7256 7259 28
5808 7256 7260 28
5809 7261 7262 28
5810 7261 7263 28
5811 7261 7264 28
5812 7261 7265 28
5813 7266 7267 28
5814 7266 7268 28
5815 7266 7269 28
5816 7266 7270 28
5817 7271 7272 28
5818 7271 7273 28
5819 7271 7274 28
5820 7271 7275 28
5821 7276 7277 28
5822 7276 7278 28
5823 7276 7279 28
5824 7276 7280 28
5825 7281 7282 28
5826 7281 7283 28
5827 7281 7284 28
5828 7281 7285 28
5829 7286 7287 28
5830 7286 7288 28
5831 7286 7289 28
5832 7286 7290 28
5833 7291 7292 28
5834 7291 7293 28
5835 7291 7294 28
5836 7291 7295 28
5837 7296 7297 28
5838 7296 7298 28
5839 7296 7299 28
5840 7296 7300 28
5841 7301 7302 28
5842 7301 7303 28
5843 7301 7304 28
5844 7301 7305 28
5845 7306 7307 28
5846 7306 7308 28
5847 7306 7309 28
5848 7306 7310 28
5849 7311 7312 28
5850 7311 7313 28
5851 7311 7314 28
5852 7311 7315 28
5853 7316 7317 28
5854 7316 7318 28
5855 7316 7319 28
5856 7316 7320 28
5857 7321 7322 28
5858 7321 7323 28
5859 7321 7324 28
5860 7321 7325 28
5861 7326 7327 28
5862 7326 7328 28
5863 7326 7329 28
5864 7326 7330 28
5865 7331 7332 28
5866 7331 7333 28
5867 7331 7334 28
5868 7331 7335 28
5869 7336 7337 28
5870 7336 7338 28
5871 7336 7339 28
5872 7336 7340 28
5873 7341 7342 28
5874 7341 7343 28
5875 7341 7344 28
5876 7341 7345 28
5877 7346 7347 28
5878 7346 7348 28
5879 7346 7349 28
5880 7346 7350 28
5881 7351 7352 28
5882 7351 7353 28
5883 7351 7354 28
5884 7351 7355 28
5885 7356 7357 28
5886 7356 7358 28
5887 7356 7359 28
5888 7356 7360 28
5889 7361 7362 28
5890 7361 7363 28
5891 7361 7364 28
5892 7361 7365 28
5893 7366 7367 28
5894 7366 7368 28
5895 7366 7369 28
5896 7366 7370 28
5897 7371 7372 28
5898 7371 7373 28
5899 7371 7374 28
5900 7371 7375 28
5901 7376 7377 28
5902 7376 7378 28
5903 7376 7379 28
5904 7376 7380 28
5905 7381 7382 28
5906 7381 7383 28
5907 7381 7384 28
5908 7381 7385 28
5909 7386 7387 28
5910 7386 7388 28
5911 7386 7389 28
5912 7386 7390 28
5913 7391 7392 28
5914 7391 7393 28
5915 7391 7394 28
5916 7391 7395 28
5917 7396 7397 28
5918 7396 7398 28
5919 7396 7399 28
5920 7396 7400 28
5921 7401 7402 28
5922 7401 7403 28
5923 7401 7404 28
5924 7401 7405 28
5925 7406 7407 28
5926 7406 7408 28
5927 7406 7409 28
5928 7406 7410 28
5929 7411 7412 28
5930 7411 7413 28
5931 7411 7414 28
5932 7411 7415 28
5933 7416 7417 28
5934 7416 7418 28
5935 7416 7419 28
5936 7416 7420 28
5937 7421 7422 28
5938 7421 7423 28
5939 7421 7424 28
5940 7421 7425 28
5941 7426 7427 28
5942 7426 7428 28
5943 7426 7429 28
5944 7426 7430 28
5945 7431 7432 28
5946 7431 7433 28
5947 7431 7434 28
5948 7431 7435 28
5949 7436 7437 28
5950 7436 7438 28
5951 7436 7439 28
5952 7436 7440 28
5953 7441 7442 28
5954 7441 7443 28
5955 7441 7444 28
5956 7441 7445 28
5957 7446 7447 28
5958 7446 7448 28
5959 7446 7449 28
5960 7446 7450 28
5961 7451 7452 28
5962 7451 7453 28
5963 7451 7454 28
5964 7451 7455 28
5965 7456 7457 28
5966 7456 7458 28
5967 7456 7459 28
5968 7456 7460 28
5969 7461 7462 28
5970 7461 7463 28
5971 7461 7464 28
5972 7461 7465 28
5973 7466 7467 28
5974 7466 7468 28
5975 7466 7469 28
5976 7466 7470 28
5977 7471 7472 28
5978 7471 7473 28
5979 7471 7474 28
5980 7471 7475 28
5981 7476 7477 28
5982 7476 7478 28
5983 7476 7479 28
5984 7476 7480 28
5985 7481 7482 28
5986 7481 7483 28
5987 7481 7484 28
5988 7481 7485 28
5989 7486 7487 28
5990 7486 7488 28
5991 7486 7489 28
5992 7486 7490 28
5993 7491 7492 28
5994 7491 7493 28
5995 7491 7494 28
5996 7491 7495 28
5997 7496 7497 28
5998 7496 7498 28
5999 7496 7499 28
6000 7496 7500 28
6001 7501 7502 28
6002 7501 7503 28
6003 7501 7504 28
6004 7501 7505 28
6005 7506 7507 28
6006 7506 7508 28
6007 7506 7509 28
6008 7506 7510 28
6009 7511 7512 28
6010 7511 7513 28
6011 7511 7514 28
6012 7511 7515 28
6013 7516 7517 28
6014 7516 7518 28
6015 7516 7519 28
6016 7516 7520 28
6017 7521 7522 28
6018 7521 7523 28
6019 7521 7524 28
6020 7521 7525 28
6021 7526 7527 28
6022 7526 7528 28
6023 7526 7529 28
6024 7526 7530 28
6025 7531 7532 28
6026 7531 7533 28
6027 7531 7534 28
6028 7531 7535 28
6029 7536 7537 28
6030 7536 7538 28
6031 7536 7539 28
6032 7536 7540 28
6033 7541 7542 28
6034 7541 7543 28
6035 7541 7544 28
6036 7541 7545 28
6037 7546 7547 28
6038 7546 7548 28
6039 7546 7549 28
6040 7546 7550 28
6041 7551 7552 28
6042 7551 7553 28
6043 7551 7554 28
6044 7551 7555 28
6045 7556 7557 28
6046 7556 7558 28
6047 7556 7559 28
6048 7556 7560 28
6049 7561 7562 28
6050 7561 7563 28
6051 7561 7564 28
6052 7561 7565 28
6053 7566 7567 28
6054 7566 7568 28
6055 7566 7569 28
6056 7566 7570 28
6057 7571 7572 28
6058 7571 7573 28
6059 7571 7574 28
6060 7571 7575 28
6061 7576 7577 28
6062 7576 7578 28
6063 7576 7579 28
6064 7576 7580 28
6065 7581 7582 28
6066 7581 7583 28
6067 7581 7584 28
6068 7581 7585 28
6069 7586 7587 28
6070 7586 7588 28
6071 7586 7589 28
6072 7586 7590 28
6073 7591 7592 28
6074 7591 7593 28
6075 7591 7594 28
6076 7591 7595 28
6077 7596 7597 28
6078 7596 7598 28
6079 7596 7599 28
6080 7596 7600 28
6081 7601 7602 28
6082 7601 7603 28
6083 7601 7604 28
6084 7601 7605 28
6085 7606 7607 28
6086 7606 7608 28
6087 7606 7609 28
6088 7606 7610 28
6089 7611 7612 28
6090 7611 7613 28
6091 7611 7614 28
6092 7611 7615 28
6093 7616 7617 28
6094 7616 7618 28
6095 7616 7619 28
6096 7616 7620 28
6097 7621 7622 28
6098 7621 7623 28
6099 7621 7624 28
6100 7621 7625 28
6101 7626 7627 28
6102 7626 7628 28
6103 7626 7629 28
6104 7626 7630 28
6105 7631 7632 28
6106 7631 7633 28
6107 7631 7634 28
6108 7631 7635 28
6109 7636 7637 28
6110 7636 7638 28
6111 7636 7639 28
6112 7636 7640 28
6113 7641 7642 28
6114 7641 7643 28
6115 7641 7644 28
6116 7641 7645 28
6117 7646 7647 28
6118 7646 7648 28
6119 7646 7649 28
6120 7646 7650 28
6121 7651 7652 28
6122 7651 7653 28
6123 7651 7654 28
6124 7651 7655 28
6125 7656 7657 28
6126 7656 7658 28
6127 7656 7659 28
6128 7656 7660 28
6129 7661 7662 28
6130 7661 7663 28
6131 7661 7664 28
6132 7661 7665 28
6133 7666 7667 28
6134 7666 7668 28
6135 7666 7669 28
6136 7666 7670 28
6137 7671 7672 28
6138 7671 7673 28
6139 7671 7674 28
6140 7671 7675 28
6141 7676 7677 28
6142 7676 7678 28
6143 7676 7679 28
6144 7676 7680 28
6145 7681 7682 28
6146 7681 7683 28
6147 7681 7684 28
6148 7681 7685 28
6149 7686 7687 28
6150 7686 7688 28
6151 7686 7689 28
6152 7686 7690 28
6153 7691 7692 28
6154 7691 7693 28
6155 7691 7694 28
6156 7691 7695 28
6157 7696 7697 28
6158 7696 7698 28
6159 7696 7699 28
6160 7696 7700 28
6161 7701 7702 28
6162 7701 7703 28
6163 7701 7704 28
6164 7701 7705 28
6165 7706 7707 28
6166 7706 7708 28
6167 7706 7709 28
6168 7706 7710 28
6169 7711 7712 28
6170 7711 7713 28
6171 7711 7714 28
6172 7711 7715 28
6173 7716 7717 28
6174 7716 7718 28
6175 7716 7719 28
6176 7716 7720 28
6177 7721 7722 28
6178 7721 7723 28
6179 7721 7724 28
6180 7721 7725 28
6181 7726 7727 28
6182 7726 7728 28
6183 7726 7729 28
6184 7726 7730 28
6185 7731 7732 28
6186 7731 7733 28
6187 7731 7734 28
6188 7731 7735 28
6189 7736 7737 28
6190 7736 7738 28
6191 7736 7739 28
6192 7736 7740 28
6193 7741 7742 28
6194 7741 7743 28
6195 7741 7744 28
6196 7741 7745 28
6197 7746 7747 28
6198 7746 7748 28
6199 7746 7749 28
6200 7746 7750 28
6201 7751 7752 28
6202 7751 7753 28
6203 7751 7754 28
6204 7751 7755 28
6205 7756 7757 28
6206 7756 7758 28
6207 7756 7759 28
6208 7756 7760 28
6209 7761 7762 28
6210 7761 7763 28
6211 7761 7764 28
6212 7761 7765 28
6213 7766 7767 28
6214 7766 7768 28
6215 7766 7769 28
6216 7766 7770 28
6217 7771 7772 28
6218 7771 7773 28
6219 7771 7774 28
6220 7771 7775 28
6221 7776 7777 28
6222 7776 7778 28
6223 7776 7779 28
6224 7776 7780 28
6225 7781 7782 28
6226 7781 7783 28
6227 7781 7784 28
6228 7781 7785 28
6229 7786 7787 28
6230 7786 7788 28
6231 7786 7789 28
6232 7786 7790 28
6233 7791 7792 28
6234 7791 7793 28
6235 7791 7794 28
6236 7791 7795 28
6237 7796 7797 28
6238 7796 7798 28
6239 7796 7799 28
6240 7796 7800 28
6241 7801 7802 28
6242 7801 7803 28
6243 7801 7804 28
6244 7801 7805 28
6245 7806 7807 28
6246 7806 7808 28
6247 7806 7809 28
6248 7806 7810 28
6249 7811 7812 28
6250 7811 7813 28
6251 7811 7814 28
6252 7811 7815 28
6253 7816 7817 28
6254 7816 7818 28
6255 7816 7819 28
6256 7816 7820 28
6257 7821 7822 28
6258 7821 7823 28
6259 7821 7824 28
6260 7821 7825 28
6261 7826 7827 28
6262 7826 7828 28
6263 7826 7829 28
6264 7826 7830 28
6265 7831 7832 28
6266 7831 7833 28
6267 7831 7834 28
6268 7831 7835 28
6269 7836 7837 28
6270 7836 7838 28
6271 7836 7839 28
6272 7836 7840 28
6273 7841 7842 28
6274 7841 7843 28
6275 7841 7844 28
6276 7841 7845 28
6277 7846 7847 28
6278 7846 7848 28
6279 7846 7849 28
6280 7846 7850 28
6281 7851 7852 28
6282 7851 7853 28
6283 7851 7854 28
6284 7851 7855 28
6285 7856 7857 28
6286 7856 7858 28
6287 7856 7859 28
6288 7856 7860 28
6289 7861 7862 28
6290 7861 7863 28
6291 7861 7864 28
6292 7861 7865 28
6293 7866 7867 28
6294 7866 7868 28
6295 7866 7869 28
6296 7866 7870 28
6297 7871 7872 28
6298 7871 7873 28
6299 7871 7874 28
6300 7871 7875 28
6301 7876 7877 28
6302 7876 7878 28
6303 7876 7879 28
6304 7876 7880 28
6305 7881 7882 28
6306 7881 7883 28
6307 7881 7884 28
6308 7881 7885 28
6309 7886 7887 28
6310 7886 7888 28
6311 7886 7889 28
6312 7886 7890 28
6313 7891 7892 28
6314 7891 7893 28
6315 7891 7894 28
6316 7891 7895 28
6317 7896 7897 28
6318 7896 7898 28
6319 7896 7899 28
6320 7896 7900 28
6321 7901 7902 28
6322 7901 7903 28
6323 7901 7904 28
6324 7901 7905 28
6325 7906 7907 28
6326 7906 7908 28
6327 7906 7909 28
6328 7906 7910 28
6329 7911 7912 28
6330 7911 7913 28
6331 7911 7914 28
6332 7911 7915 28
6333 7916 7917 28
6334 7916 7918 28
6335 7916 7919 28
6336 7916 7920 28
6337 7921 7922 28
6338 7921 7923 28
6339 7921 7924 28
6340 7921 7925 28
6341 7926 7927 28
6342 7926 7928 28
6343 7926 7929 28
6344 7926 7930 28
6345 7931 7932 28
6346 7931 7933 28
6347 7931 7934 28
6348 7931 7935 28
6349 7936 7937 28
6350 7936 7938 28
6351 7936 7939 28
6352 7936 7940 28
6353 7941 7942 28
6354 7941 7943 28
6355 7941 7944 28
6356 7941 7945 28
6357 7946 7947 28
6358 7946 7948 28
6359 7946 7949 28
6360 7946 7950 28
6361 7951 7952 28
6362 7951 7953 28
6363 7951 7954 28
6364 7951 7955 28
6365 7956 7957 28
6366 7956 7958 28
6367 7956 7959 28
6368 7956 7960 28
6369 7961 7962 28
6370 7961 7963 28
6371 7961 7964 28
6372 7961 7965 28
6373 7966 7967 28
6374 7966 7968 28
6375 7966 7969 28
6376 7966 7970 28
6377 7971 7972 28
6378 7971 7973 28
6379 7971 7974 28
6380 7971 7975 28
6381 7976 7977 28
6382 7976 7978 28
6383 7976 7979 28
6384 7976 7980 28
6385 7981 7982 28
6386 7981 7983 28
6387 7981 7984 28
6388 7981 7985 28
6389 7986 7987 28
6390 7986 7988 28
6391 7986 7989 28
6392 7986 7990 28
6393 7991 7992 28
6394 7991 7993 28
6395 7991 7994 28
6396 7991 7995 28
6397 7996 7997 28
6398 7996 7998 28
6399 7996 7999 28
6400 7996 8000 28
6401 8001 8002 28
6402 8001 8003 28
6403 8001 8004 28
6404 8001 8005 28
6405 8006 8007 28
6406 8006 8008 28
6407 8006 8009 28
6408 8006 8010 28
6409 8011 8012 28
6410 8011 8013 28
6411 8011 8014 28
6412 8011 8015 28
6413 8016 8017 28
6414 8016 8018 28
6415 8016 8019 28
6416 8016 8020 28
6417 8021 8022 28
6418 8021 8023 28
6419 8021 8024 28
6420 8021 8025 28
6421 8026 8027 28
6422 8026 8028 28
6423 8026 8029 28
6424 8026 8030 28
6425 8031 8032 28
6426 8031 8033 28
6427 8031 8034 28
6428 8031 8035 28
6429 8036 8037 28
6430 8036 8038 28
6431 8036 8039 28
6432 8036 8040 28
6433 8041 8042 28
6434 8041 8043 28
6435 8041 8044 28
6436 8041 8045 28
6437 8046 8047 28
6438 8046 8048 28
6439 8046 8049 28
6440 8046 8050 28
6441 8051 8052 28
6442 8051 8053 28
6443 8051 8054 28
6444 8051 8055 28
6445 8056 8057 28
6446 8056 8058 28
6447 8056 8059 28
6448 8056 8060 28
6449 8061 8062 28
6450 8061 8063 28
6451 8061 8064 28
6452 8061 8065 28
6453 8066 8067 28
6454 8066 8068 28
6455 8066 8069 28
6456 8066 8070 28
6457 8071 8072 28
6458 8071 8073 28
6459 8071 8074 28
6460 8071 8075 28
6461 8076 8077 28
6462 8076 8078 28
6463 8076 8079 28
6464 8076 8080 28
6465 8081 8082 28
6466 8081 8083 28
6467 8081 8084 28
6468 8081 8085 28
6469 8086 8087 28
6470 8086 8088 28
6471 8086 8089 28
6472 8086 8090 28
6473 8091 8092 28
6474 8091 8093 28
6475 8091 8094 28
6476 8091 8095 28
6477 8096 8097 28
6478 8096 8098 28
6479 8096 8099 28
6480 8096 8100 28
6481 8101 8102 28
6482 8101 8103 28
6483 8101 8104 28
6484 8101 8105 28
6485 8106 8107 28
6486 8106 8108 28
6487 8106 8109 28
6488 8106 8110 28
6489 8111 8112 28
6490 8111 8113 28
6491 8111 8114 28
6492 8111 8115 28
6493 8116 8117 28
6494 8116 8118 28
6495 8116 8119 28
6496 8116 8120 28
6497 8121 8122 28
6498 8121 8123 28
6499 8121 8124 28
6500 8121 8125 28
6501 8126 8127 28
6502 8126 8128 28
6503 8126 8129 28
6504 8126 8130 28
6505 8131 8132 28
6506 8131 8133 28
6507 8131 8134 28
6508 8131 8135 28
6509 8136 8137 28
6510 8136 8138 28
6511 8136 8139 28
6512 8136 8140 28
6513 8141 8142 28
6514 8141 8143 28
6515 8141 8144 28
6516 8141 8145 28
6517 8146 8147 28
6518 8146 8148 28
6519 8146 8149 28
6520 8146 8150 28
6521 8151 8152 28
6522 8151 8153 28
6523 8151 8154 28
6524 8151 8155 28
6525 8156 8157 28
6526 8156 8158 28
6527 8156 8159 28
6528 8156 8160 28
6529 8161 8162 28
6530 8161 8163 28
6531 8161 8164 28
6532 8161 8165 28
6533 8166 8167 28
6534 8166 8168 28
6535 8166 8169 28
6536 8166 8170 28
6537 8171 8172 28
6538 8171 8173 28
6539 8171 8174 28
6540 8171 8175 28
6541 8176 8177 28
6542 8176 8178 28
6543 8176 8179 28
6544 8176 8180 28
6545 8181 8182 28
6546 8181 8183 28
6547 8181 8184 28
6548 8181 8185 28
6549 8186 8187 28
6550 8186 8188 28
6551 8186 8189 28
6552 8186 8190 28
6553 8191 8192 28
6554 8191 8193 28
6555 8191 8194 28
6556 8191 8195 28
6557 8196 8197 28
6558 8196 8198 28
6559 8196 8199 28
6560 8196 8200 28
6561 8201 8202 28
6562 8201 8203 28
6563 8201 8204 28
6564 8201 8205 28
6565 8206 8207 28
6566 8206 8208 28
6567 8206 8209 28
6568 8206 8210 28
6569 8211 8212 28
6570 8211 8213 28
6571 8211 8214 28
6572 8211 8215 28
6573 8216 8217 28
6574 8216 8218 28
6575 8216 8219 28
6576 8216 8220 28
6577 8221 8222 28
6578 8221 8223 28
6579 8221 8224 28
6580 8221 8225 28
6581 8226 8227 28
6582 8226 8228 28
6583 8226 8229 28
6584 8226 8230 28
6585 8231 8232 28
6586 8231 8233 28
6587 8231 8234 28
6588 8231 8235 28
6589 8236 8237 28
6590 8236 8238 28
6591 8236 8239 28
6592 8236 8240 28
6593 8241 8242 28
6594 8241 8243 28
6595 8241 8244 28
6596 8241 8245 28
6597 8246 8247 28
6598 8246 8248 28
6599 8246 8249 28
6600 8246 8250 28
6601 8251 8252 28
6602 8251 8253 28
6603 8251 8254 28
6604 8251 8255 28
6605 8256 8257 28
6606 8256 8258 28
6607 8256 8259 28
6608 8256 8260 28
6609 8261 8262 28
6610 8261 8263 28
6611 8261 8264 28
6612 8261 8265 28
6613 8266 8267 28
6614 8266 8268 28
6615 8266 8269 28
6616 8266 8270 28
6617 8271 8272 28
6618 8271 8273 28
6619 8271 8274 28
6620 8271 8275 28
6621 8276 8277 28
6622 8276 8278 28
6623 8276 8279 28
6624 8276 8280 28
6625 8281 8282 28
6626 8281 8283 28
6627 8281 8284 28
6628 8281 8285 28
6629 8286 8287 28
6630 8286 8288 28
6631 8286 8289 28
6632 8286 8290 28
6633 8291 8292 28
6634 8291 8293 28
6635 8291 8294 28
6636 8291 8295 28
6637 8296 8297 28
6638 8296 8298 28
6639 8296 8299 28
6640 8296 8300 28
6641 8301 8302 28
6642 8301 8303 28
6643 8301 8304 28
6644 8301 8305 28
6645 8306 8307 28
6646 8306 8308 28
6647 8306 8309 28
6648 8306 8310 28
6649 8311 8312 28
6650 8311 8313 28
6651 8311 8314 28
6652 8311 8315 28
6653 8316 8317 28
6654 8316 8318 28
6655 8316 8319 28
6656 8316 8320 28
6657 8321 8322 28
6658 8321 8323 28
6659 8321 8324 28
6660 8321 8325 28
6661 8326 8327 28
6662 8326 8328 28
6663 8326 8329 28
6664 8326 8330 28
6665 8331 8332 28
6666 8331 8333 28
6667 8331 8334 28
6668 8331 8335 28
6669 8336 8337 28
6670 8336 8338 28
6671 8336 8339 28
6672 8336 8340 28
6673 8341 8342 28
6674 8341 8343 28
6675 8341 8344 28
6676 8341 8345 28
6677 8346 8347 28
6678 8346 8348 28
6679 8346 8349 28
6680 8346 8350 28
6681 8351 8352 28
6682 8351 8353 28
6683 8351 8354 28
6684 8351 8355 28
6685 8356 8357 28
6686 8356 8358 28
6687 8356 8359 28
6688 8356 8360 28
6689 8361 8362 28
6690 8361 8363 28
6691 8361 8364 28
6692 8361 8365 28
6693 8366 8367 28
6694 8366 8368 28
6695 8366 8369 28
6696 8366 8370 28
6697 8371 8372 28
6698 8371 8373 28
6699 8371 8374 28
6700 8371 8375 28
6701 8376 8377 28
6702 8376 8378 28
6703 8376 8379 28
6704 8376 8380 28
6705 8381 8382 28
6706 8381 8383 28
6707 8381 8384 28
6708 8381 8385 28
6709 8386 8387 28
6710 8386 8388 28
6711 8386 8389 28
6712 8386 8390 28
6713 8391 8392 28
6714 8391 8393 28
6715 8391 8394 28
6716 8391 8395 28
6717 8396 8397 28
6718 8396 8398 28
6719 8396 8399 28
6720 8396 8400 28
6721 8401 8402 28
6722 8401 8403 28
6723 8401 8404 28
6724 8401 8405 28
6725 8406 8407 28
6726 8406 8408 28
6727 8406 8409 28
6728 8406 8410 28
6729 8411 8412 28
6730 8411 8413 28
6731 8411 8414 28
6732 8411 8415 28
6733 8416 8417 28
6734 8416 8418 28
6735 8416 8419 28
6736 8416 8420 28
6737 8421 8422 28
6738 8421 8423 28
6739 8421 8424 28
6740 8421 8425 28
6741 8426 8427 28
6742 8426 8428 28
6743 8426 8429 28
6744 8426 8430 28
6745 8431 8432 28
6746 8431 8433 28
6747 8431 8434 28
6748 8431 8435 28
6749 8436 8437 28
6750 8436 8438 28
6751 8436 8439 28
6752 8436 8440 28
6753 8441 8442 28
6754 8441 8443 28
6755 8441 8444 28
6756 8441 8445 28
6757 8446 8447 28
6758 8446 8448 28
6759 8446 8449 28
6760 8446 8450 28
6761 8451 8452 28
6762 8451 8453 28
6763 8451 8454 28
6764 8451 8455 28
6765 8456 8457 28
6766 8456 8458 28
6767 8456 8459 28
6768 8456 8460 28
6769 8461 8462 28
6770 8461 8463 28
6771 8461 8464 28
6772 8461 8465 28
6773 8466 8467 28
6774 8466 8468 28
6775 8466 8469 28
6776 8466 8470 28
6777 8471 8472 28
6778 8471 8473 28
6779 8471 8474 28
6780 8471 8475 28
6781 8476 8477 28
6782 8476 8478 28
6783 8476 8479 28
6784 8476 8480 28
6785 8481 8482 28
6786 8481 8483 28
6787 8481 8484 28
6788 8481 8485 28
6789 8486 8487 28
6790 8486 8488 28
6791 8486 8489 28
6792 8486 8490 28
6793 8491 8492 28
6794 8491 8493 28
6795 8491 8494 28
6796 8491 8495 28
6797 8496 8497 28
6798 8496 8498 28
6799 8496 8499 28
6800 8496 8500 28
6801 8501 8502 28
6802 8501 8503 28
6803 8501 8504 28
6804 8501 8505 28
6805 8506 8507 28
6806 8506 8508 28
6807 8506 8509 28
6808 8506 8510 28
6809 8511 8512 28
6810 8511 8513 28
6811 8511 8514 28
6812 8511 8515 28
6813 8516 8517 28
6814 8516 8518 28
6815 8516 8519 28
6816 8516 8520 28
6817 8521 8522 28
6818 8521 8523 28
6819 8521 8524 28
6820 8521 8525 28
6821 8526 8527 28
6822 8526 8528 28
6823 8526 8529 28
6824 8526 8530 28
6825 8531 8532 28
6826 8531 8533 28
6827 8531 8534 28
6828 8531 8535 28
6829 8536 8537 28
6830 8536 8538 28
6831 8536 8539 28
6832 8536 8540 28
6833 8541 8542 28
6834 8541 8543 28
6835 8541 8544 28
6836 8541 8545 28
6837 8546 8547 28
6838 8546 8548 28
6839 8546 8549 28
6840 8546 8550 28
6841 8551 8552 28
6842 8551 8553 28
6843 8551 8554 28
6844 8551 8555 28
6845 8556 8557 28
6846 8556 8558 28
6847 8556 8559 28
6848 8556 8560 28
6849 8561 8562 28
6850 8561 8563 28
6851 8561 8564 28
6852 8561 8565 28
6853 8566 8567 28
6854 8566 8568 28
6855 8566 8569 28
6856 8566 8570 28
6857 8571 8572 28
6858 8571 8573 28
6859 8571 8574 28
6860 8571 8575 28
6861 8576 8577 28
6862 8576 8578 28
6863 8576 8579 28
6864 8576 8580 28
6865 8581 8582 28
6866 8581 8583 28
6867 8581 8584 28
6868 8581 8585 28
6869 8586 8587 28
6870 8586 8588 28
6871 8586 8589 28
6872 8586 8590 28
6873 8591 8592 28
6874 8591 8593 28
6875 8591 8594 28
6876 8591 8595 28
6877 8596 8597 28
6878 8596 8598 28
6879 8596 8599 28
6880 8596 8600 28
6881 8601 8602 28
6882 8601 8603 28
6883 8601 8604 28
6884 8601 8605 28
6885 8606 8607 28
6886 8606 8608 28
6887 8606 8609 28
6888 8606 8610 28
6889 8611 8612 28
6890 8611 8613 28
6891 8611 8614 28
6892 8611 8615 28
6893 8616 8617 28
6894 8616 8618 28
6895 8616 8619 28
6896 8616 8620 28
6897 8621 8622 28
6898 8621 8623 28
6899 8621 8624 28
6900 8621 8625 28
6901 8626 8627 28
6902 8626 8628 28
6903 8626 8629 28
6904 8626 8630 28
6905 8631 8632 28
6906 8631 8633 28
6907 8631 8634 28
6908 8631 8635 28
6909 8636 8637 28
6910 8636 8638 28
6911 8636 8639 28
6912 8636 8640 28
6913 8641 8642 28
6914 8641 8643 28
6915 8641 8644 28
6916 8641 8645 28
6917 8646 8647 28
6918 8646 8648 28
6919 8646 8649 28
6920 8646 8650 28
6921 8651 8652 28
6922 8651 8653 28
6923 8651 8654 28
6924 8651 8655 28
6925 8656 8657 28
6926 8656 8658 28
6927 8656 8659 28
6928 8656 8660 28
6929 8661 8662 28
6930 8661 8663 28
6931 8661 8664 28
6932 8661 8665 28
6933 8666 8667 28
6934 8666 8668 28
6935 8666 8669 28
6936 8666 8670 28
6937 8671 8672 28
6938 8671 8673 28
6939 8671 8674 28
6940 8671 8675 28
6941 8676 8677 28
6942 8676 8678 28
6943 8676 8679 28
6944 8676 8680 28
6945 8681 8682 28
6946 8681 8683 28
6947 8681 8684 28
6948 8681 8685 28
6949 8686 8687 28
6950 8686 8688 28
6951 8686 8689 28
6952 8686 8690 28
6953 8691 8692 28
6954 8691 8693 28
6955 8691 8694 28
6956 8691 8695 28
6957 8696 8697 28
6958 8696 8698 28
6959 8696 8699 28
6960 8696 8700 28
6961 8701 8702 28
6962 8701 8703 28
6963 8701 8704 28
6964 8701 8705 28
6965 8706 8707 28
6966 8706 8708 28
6967 8706 8709 28
6968 8706 8710 28
6969 8711 8712 28
6970 8711 8713 28
6971 8711 8714 28
6972 8711 8715 28
6973 8716 8717 28
6974 8716 8718 28
6975 8716 8719 28
6976 8716 8720 28
6977 8721 8722 28
6978 8721 8723 28
6979 8721 8724 28
6980 8721 8725 28
6981 8726 8727 28
6982 8726 8728 28
6983 8726 8729 28
6984 8726 8730 28
6985 8731 8732 28
6986 8731 8733 28
6987 8731 8734 28
6988 8731 8735 28
6989 8736 8737 28
6990 8736 8738 28
6991 8736 8739 28
6992 8736 8740 28
6993 8741 8742 28
6994 8741 8743 28
6995 8741 8744 28
6996 8741 8745 28
6997 8746 8747 28
6998 8746 8748 28
6999 8746 8749 28
7000 8746 8750 28
7001 8751 8752 28
7002 8751 8753 28
7003 8751 8754 28
7004 8751 8755 28
7005 8756 8757 28
7006 8756 8758 28
7007 8756 8759 28
7008 8756 8760 28
7009 8761 8762 28
7010 8761 8763 28
7011 8761 8764 28
7012 8761 8765 28
7013 8766 8767 28
7014 8766 8768 28
7015 8766 8769 28
7016 8766 8770 28
7017 8771 8772 28
7018 8771 8773 28
7019 8771 8774 28
7020 8771 8775 28
7021 8776 8777 28
7022 8776 8778 28
7023 8776 8779 28
7024 8776 8780 28
7025 8781 8782 28
7026 8781 8783 28
7027 8781 8784 28
7028 8781 8785 28
7029 8786 8787 28
7030 8786 8788 28
7031 8786 8789 28
7032 8786 8790 28
7033 8791 8792 28
7034 8791 8793 28
7035 8791 8794 28
7036 8791 8795 28
7037 8796 8797 28
7038 8796 8798 28
7039 8796 8799 28
7040 8796 8800 28
7041 8801 8802 28
7042 8801 8803 28
7043 8801 8804 28
7044 8801 8805 28
7045 8806 8807 28
7046 8806 8808 28
7047 8806 8809 28
7048 8806 8810 28
7049 8811 8812 28
7050 8811 8813 28
7051 8811 8814 28
7052 8811 8815 28
7053 8816 8817 28
7054 8816 8818 28
7055 8816 8819 28
7056 8816 8820 28
7057 8821 8822 28
7058 8821 8823 28
7059 8821 8824 28
7060 8821 8825 28
7061 8826 8827 28
7062 8826 8828 28
7063 8826 8829 28
7064 8826 8830 28
7065 8831 8832 28
7066 8831 8833 28
7067 8831 8834 28
7068 8831 8835 28
7069 8836 8837 28
7070 8836 8838 28
7071 8836 8839 28
7072 8836 8840 28
7073 8841 8842 28
7074 8841 8843 28
7075 8841 8844 28
7076 8841 8845 28
7077 8846 8847 28
7078 8846 8848 28
7079 8846 8849 28
7080 8846 8850 28
7081 8851 8852 28
7082 8851 8853 28
7083 8851 8854 28
7084 8851 8855 28
7085 8856 8857 28
7086 8856 8858 28
7087 8856 8859 28
7088 8856 8860 28
7089 8861 8862 28
7090 8861 8863 28
7091 8861 8864 28
7092 8861 8865 28
7093 8866 8867 28
7094 8866 8868 28
7095 8866 8869 28
7096 8866 8870 28
7097 8871 8872 28
7098 8871 8873 28
7099 8871 8874 28
7100 8871 8875 28
7101 8876 8877 28
7102 8876 8878 28
7103 8876 8879 28
7104 8876 8880 28
7105 8881 8882 28
7106 8881 8883 28
7107 8881 8884 28
7108 8881 8885 28
7109 8886 8887 28
7110 8886 8888 28
7111 8886 8889 28
7112 8886 8890 28
7113 8891 8892 28
7114 8891 8893 28
7115 8891 8894 28
7116 8891 8895 28
7117 8896 8897 28
7118 8896 8898 28
7119 8896 8899 28
7120 8896 8900 28
7121 8901 8902 28
7122 8901 8903 28
7123 8901 8904 28
7124 8901 8905 28
7125 8906 8907 28
7126 8906 8908 28
7127 8906 8909 28
7128 8906 8910 28
7129 8911 8912 28
7130 8911 8913 28
7131 8911 8914 28
7132 8911 8915 28
7133 8916 8917 28
7134 8916 8918 28
7135 8916 8919 28
7136 8916 8920 28
7137 8921 8922 28
7138 8921 8923 28
7139 8921 8924 28
7140 8921 8925 28
7141 8926 8927 28
7142 8926 8928 28
7143 8926 8929 28
7144 8926 8930 28
7145 8931 8932 28
7146 8931 8933 28
7147 8931 8934 28
7148 8931 8935 28
7149 8936 8937 28
7150 8936 8938 28
7151 8936 8939 28
7152 8936 8940 28
7153 8941 8942 28
7154 8941 8943 28
7155 8941 8944 28
7156 8941 8945 28
7157 8946 8947 28
7158 8946 8948 28
7159 8946 8949 28
7160 8946 8950 28
7161 8951 8952 28
7162 8951 8953 28
7163 8951 8954 28
7164 8951 8955 28
7165 8956 8957 28
7166 8956 8958 28
7167 8956 8959 28
7168 8956 8960 28
7169 8961 8962 28
7170 8961 8963 28
7171 8961 8964 28
7172 8961 8965 28
7173 8966 8967 28
7174 8966 8968 28
7175 8966 8969 28
7176 8966 8970 28
7177 8971 8972 28
7178 8971 8973 28
7179 8971 8974 28
7180 8971 8975 28
7181 8976 8977 28
7182 8976 8978 28
7183 8976 8979 28
7184 8976 8980 28
7185 8981 8982 28
7186 8981 8983 28
7187 8981 8984 28
7188 8981 8985 28
7189 8986 8987 28
7190 8986 8988 28
7191 8986 8989 28
7192 8986 8990 28
7193 8991 8992 28
7194 8991 8993 28
7195 8991 8994 28
7196 8991 8995 28
7197 8996 8997 28
7198 8996 8998 28
7199 8996 8999 28
7200 8996 9000 28
7201 9001 9002 28
7202 9001 9003 28
7203 9001 9004 28
7204 9001 9005 28
7205 9006 9007 28
7206 9006 9008 28
7207 9006 9009 28
7208 9006 9010 28
7209 9011 9012 28
7210 9011 9013 28
7211 9011 9014 28
7212 9011 9015 28
7213 9016 9017 28
7214 9016 9018 28
7215 9016 9019 28
7216 9016 9020 28
7217 9021 9022 28
7218 9021 9023 28
7219 9021 9024 28
7220 9021 9025 28
7221 9026 9027 28
7222 9026 9028 28
7223 9026 9029 28
7224 9026 9030 28
7225 9031 9032 28
7226 9031 9033 28
7227 9031 9034 28
7228 9031 9035 28
7229 9036 9037 28
7230 9036 9038 28
7231 9036 9039 28
7232 9036 9040 28
7233 9041 9042 28
7234 9041 9043 28
7235 9041 9044 28
7236 9041 9045 28
7237 9046 9047 28
7238 9046 9048 28
7239 9046 9049 28
7240 9046 9050 28
7241 9051 9052 28
7242 9051 9053 28
7243 9051 9054 28
7244 9051 9055 28
7245 9056 9057 28
7246 9056 9058 28
7247 9056 9059 28
7248 9056 9060 28
7249 9061 9062 28
7250 9061 9063 28
7251 9061 9064 28
7252 9061 9065 28
7253 9066 9067 28
7254 9066 9068 28
7255 9066 9069 28
7256 9066 9070 28
7257 9071 9072 28
7258 9071 9073 28
7259 9071 9074 28
7260 9071 9075 28
7261 9076 9077 28
7262 9076 9078 28
7263 9076 9079 28
7264 9076 9080 28
7265 9081 9082 28
7266 9081 9083 28
7267 9081 9084 28
7268 9081 9085 28
7269 9086 9087 28
7270 9086 9088 28
7271 9086 9089 28
7272 9086 9090 28
7273 9091 9092 28
7274 9091 9093 28
7275 9091 9094 28
7276 9091 9095 28
7277 9096 9097 28
7278 9096 9098 28
7279 9096 9099 28
7280 9096 9100 28
7281 9101 9102 28
7282 9101 9103 28
7283 9101 9104 28
7284 9101 9105 28
7285 9106 9107 28
7286 9106 9108 28
7287 9106 9109 28
7288 9106 9110 28
7289 9111 9112 28
7290 9111 9113 28
7291 9111 9114 28
7292 9111 9115 28
7293 9116 9117 28
7294 9116 9118 28
7295 9116 9119 28
7296 9116 9120 28
7297 9121 9122 28
7298 9121 9123 28
7299 9121 9124 28
7300 9121 9125 28
7301 9126 9127 28
7302 9126 9128 28
7303 9126 9129 28
7304 9126 9130 28
7305 9131 9132 28
7306 9131 9133 28
7307 9131 9134 28
7308 9131 9135 28
7309 9136 9137 28
7310 9136 9138 28
7311 9136 9139 28
7312 9136 9140 28
7313 9141 9142 28
7314 9141 9143 28
7315 9141 9144 28
7316 9141 9145 28
7317 9146 9147 28
7318 9146 9148 28
7319 9146 9149 28
7320 9146 9150 28
7321 9151 9152 28
7322 9151 9153 28
7323 9151 9154 28
7324 9151 9155 28
7325 9156 9157 28
7326 9156 9158 28
7327 9156 9159 28
7328 9156 9160 28
7329 9161 9162 28
7330 9161 9163 28
7331 9161 9164 28
7332 9161 9165 28
7333 9166 9167 28
7334 9166 9168 28
7335 9166 9169 28
7336 9166 9170 28
7337 9171 9172 28
7338 9171 9173 28
7339 9171 9174 28
7340 9171 9175 28
7341 9176 9177 28
7342 9176 9178 28
7343 9176 9179 28
7344 9176 9180 28
7345 9181 9182 28
7346 9181 9183 28
7347 9181 9184 28
7348 9181 9185 28
7349 9186 9187 28
7350 9186 9188 28
7351 9186 9189 28
7352 9186 9190 28
7353 9191 9192 28
7354 9191 9193 28
7355 9191 9194 28
7356 9191 9195 28
7357 9196 9197 28
7358 9196 9198 28
7359 9196 9199 28
7360 9196 9200 28
7361 9201 9202 28
7362 9201 9203 28
7363 9201 9204 28
7364 9201 9205 28
7365 9206 9207 28
7366 9206 9208 28
7367 9206 9209 28
7368 9206 9210 28
7369 9211 9212 28
7370 9211 9213 28
7371 9211 9214 28
7372 9211 9215 28
7373 9216 9217 28
7374 9216 9218 28
7375 9216 9219 28
7376 9216 9220 28
7377 9221 9222 28
7378 9221 9223 28
7379 9221 9224 28
7380 9221 9225 28
7381 9226 9227 28
7382 9226 9228 28
7383 9226 9229 28
7384 9226 9230 28
7385 9231 9232 28
7386 9231 9233 28
7387 9231 9234 28
7388 9231 9235 28
7389 9236 9237 28
7390 9236 9238 28
7391 9236 9239 28
7392 9236 9240 28
7393 9241 9242 28
7394 9241 9243 28
7395 9241 9244 28
7396 9241 9245 28
7397 9246 9247 28
7398 9246 9248 28
7399 9246 9249 28
7400 9246 9250 28
7401 9251 9252 28
7402 9251 9253 28
7403 9251 9254 28
7404 9251 9255 28
7405 9256 9257 28
7406 9256 9258 28
7407 9256 9259 28
7408 9256 9260 28
7409 9261 9262 28
7410 9261 9263 28
7411 9261 9264 28
7412 9261 9265 28
7413 9266 9267 28
7414 9266 9268 28
7415 9266 9269 28
7416 9266 9270 28
7417 9271 9272 28
7418 9271 9273 28
7419 9271 9274 28
7420 9271 9275 28
7421 9276 9277 28
7422 9276 9278 28
7423 9276 9279 28
7424 9276 9280 28
7425 9281 9282 28
7426 9281 9283 28
7427 9281 9284 28
7428 9281 9285 28
7429 9286 9287 28
7430 9286 9288 28
7431 9286 9289 28
7432 9286 9290 28
7433 9291 9292 28
7434 9291 9293 28
7435 9291 9294 28
7436 9291 9295 28
7437 9296 9297 28
7438 9296 9298 28
7439 9296 9299 28
7440 9296 9300 28
7441 9301 9302 28
7442 9301 9303 28
7443 9301 9304 28
7444 9301 9305 28
7445 9306 9307 28
7446 9306 9308 28
7447 9306 9309 28
7448 9306 9310 28
7449 9311 9312 28
7450 9311 9313 28
7451 9311 9314 28
7452 9311 9315 28
7453 9316 9317 28
7454 9316 9318 28
7455 9316 9319 28
7456 9316 9320 28
7457 9321 9322 28
7458 9321 9323 28
7459 9321 9324 28
7460 9321 9325 28
7461 9326 9327 28
7462 9326 9328 28
7463 9326 9329 28
7464 9326 9330 28
7465 9331 9332 28
7466 9331 9333 28
7467 9331 9334 28
7468 9331 9335 28
7469 9336 9337 28
7470 9336 9338 28
7471 9336 9339 28
7472 9336 9340 28
7473 9341 9342 28
7474 9341 9343 28
7475 9341 9344 28
7476 9341 9345 28
7477 9346 9347 28
7478 9346 9348 28
7479 9346 9349 28
7480 9346 9350 28
7481 9351 9352 28
7482 9351 9353 28
7483 9351 9354 28
7484 9351 9355 28
7485 9356 9357 28
7486 9356 9358 28
7487 9356 9359 28
7488 9356 9360 28
7489 9361 9362 28
7490 9361 9363 28
7491 9361 9364 28
7492 9361 9365 28
7493 9366 9367 28
7494 9366 9368 28
7495 9366 9369 28
7496 9366 9370 28
7497 9371 9372 28
7498 9371 9373 28
7499 9371 9374 28
7500 9371 9375 28
7501 9376 9377 28
7502 9376 9378 28
7503 9376 9379 28
7504 9376 9380 28
7505 9381 9382 28
7506 9381 9383 28
7507 9381 9384 28
7508 9381 9385 28
7509 9386 9387 28
7510 9386 9388 28
7511 9386 9389 28
7512 9386 9390 28
7513 9391 9392 28
7514 9391 9393 28
7515 9391 9394 28
7516 9391 9395 28
7517 9396 9397 28
7518 9396 9398 28
7519 9396 9399 28
7520 9396 9400 28
7521 9401 9402 28
7522 9401 9403 28
7523 9401 9404 28
7524 9401 9405 28
7525 9406 9407 28
7526 9406 9408 28
7527 9406 9409 28
7528 9406 9410 28
7529 9411 9412 28
7530 9411 9413 28
7531 9411 9414 28
7532 9411 9415 28
7533 9416 9417 28
7534 9416 9418 28
7535 9416 9419 28
7536 9416 9420 28
7537 9421 9422 28
7538 9421 9423 28
7539 9421 9424 28
7540 9421 9425 28
7541 9426 9427 28
7542 9426 9428 28
7543 9426 9429 28
7544 9426 9430 28
7545 9431 9432 28
7546 9431 9433 28
7547 9431 9434 28
7548 9431 9435 28
7549 9436 9437 28
7550 9436 9438 28
7551 9436 9439 28
7552 9436 9440 28
7553 9441 9442 28
7554 9441 9443 28
7555 9441 9444 28
7556 9441 9445 28
7557 9446 9447 28
7558 9446 9448 28
7559 9446 9449 28
7560 9446 9450 28
7561 9451 9452 28
7562 9451 9453 28
7563 9451 9454 28
7564 9451 9455 28
7565 9456 9457 28
7566 9456 9458 28
7567 9456 9459 28
7568 9456 9460 28
7569 9461 9462 28
7570 9461 9463 28
7571 9461 9464 28
7572 9461 9465 28
7573 9466 9467 28
7574 9466 9468 28
7575 9466 9469 28
7576 9466 9470 28
7577 9471 9472 28
7578 9471 9473 28
7579 9471 9474 28
7580 9471 9475 28
7581 9476 9477 28
7582 9476 9478 28
7583 9476 9479 28
7584 9476 9480 28
7585 9481 9482 28
7586 9481 9483 28
7587 9481 9484 28
7588 9481 9485 28
7589 9486 9487 28
7590 9486 9488 28
7591 9486 9489 28
7592 9486 9490 28
7593 9491 9492 28
7594 9491 9493 28
7595 9491 9494 28
7596 9491 9495 28
7597 9496 9497 28
7598 9496 9498 28
7599 9496 9499 28
7600 9496 9500 28
7601 9501 9502 28
7602 9501 9503 28
7603 9501 9504 28
7604 9501 9505 28
7605 9506 9507 28
7606 9506 9508 28
7607 9506 9509 28
7608 9506 9510 28
7609 9511 9512 28
7610 9511 9513 28
7611 9511 9514 28
7612 9511 9515 28
7613 9516 9517 28
7614 9516 9518 28
7615 9516 9519 28
7616 9516 9520 28
7617 9521 9522 28
7618 9521 9523 28
7619 9521 9524 28
7620 9521 9525 28
7621 9526 9527 28
7622 9526 9528 28
7623 9526 9529 28
7624 9526 9530 28
7625 9531 9532 28
7626 9531 9533 28
7627 9531 9534 28
7628 9531 9535 28
7629 9536 9537 28
7630 9536 9538 28
7631 9536 9539 28
7632 9536 9540 28
7633 9541 9542 28
7634 9541 9543 28
7635 9541 9544 28
7636 9541 9545 28
7637 9546 9547 28
7638 9546 9548 28
7639 9546 9549 28
7640 9546 9550 28
7641 9551 9552 28
7642 9551 9553 28
7643 9551 9554 28
7644 9551 9555 28
7645 9556 9557 28
7646 9556 9558 28
7647 9556 9559 28
7648 9556 9560 28
7649 9561 9562 28
7650 9561 9563 28
7651 9561 9564 28
7652 9561 9565 28
7653 9566 9567 28
7654 9566 9568 28
7655 9566 9569 28
7656 9566 9570 28
7657 9571 9572 28
7658 9571 9573 28
7659 9571 9574 28
7660 9571 9575 28
7661 9576 9577 28
7662 9576 9578 28
7663 9576 9579 28
7664 9576 9580 28
7665 9581 9582 28
7666 9581 9583 28
7667 9581 9584 28
7668 9581 9585 28
7669 9586 9587 28
7670 9586 9588 28
7671 9586 9589 28
7672 9586 9590 28
7673 9591 9592 28
7674 9591 9593 28
7675 9591 9594 28
7676 9591 9595 28
7677 9596 9597 28
7678 9596 9598 28
7679 9596 9599 28
7680 9596 9600 28
7681 9601 9602 28
7682 9601 9603 28
7683 9601 9604 28
7684 9601 9605 28
7685 9606 9607 28
7686 9606 9608 28
7687 9606 9609 28
7688 9606 9610 28
7689 9611 9612 28
7690 9611 9613 28
7691 9611 9614 28
7692 9611 9615 28
7693 9616 9617 28
7694 9616 9618 28
7695 9616 9619 28
7696 9616 9620 28
7697 9621 9622 28
7698 9621 9623 28
7699 9621 9624 28
7700 9621 9625 28
7701 9626 9627 28
7702 9626 9628 28
7703 9626 9629 28
7704 9626 9630 28
7705 9631 9632 28
7706 9631 9633 28
7707 9631 9634 28
7708 9631 9635 28
7709 9636 9637 28
7710 9636 9638 28
7711 9636 9639 28
7712 9636 9640 28
7713 9641 9642 28
7714 9641 9643 28
7715 9641 9644 28
7716 9641 9645 28
7717 9646 9647 28
7718 9646 9648 28
7719 9646 9649 28
7720 9646 9650 28
7721 9651 9652 28
7722 9651 9653 28
7723 9651 9654 28
7724 9651 9655 28
7725 9656 9657 28
7726 9656 9658 28
7727 9656 9659 28
7728 9656 9660 28
7729 9661 9662 28
7730 9661 9663 28
7731 9661 9664 28
7732 9661 9665 28
7733 9666 9667 28
7734 9666 9668 28
7735 9666 9669 28
7736 9666 9670 28
7737 9671 9672 28
7738 9671 9673 28
7739 9671 9674 28
7740 9671 9675 28
7741 9676 9677 28
7742 9676 9678 28
7743 9676 9679 28
7744 9676 9680 28
7745 9681 9682 28
7746 9681 9683 28
7747 9681 9684 28
7748 9681 9685 28
7749 9686 9687 28
7750 9686 9688 28
7751 9686 9689 28
7752 9686 9690 28
7753 9691 9692 28
7754 9691 9693 28
7755 9691 9694 28
7756 9691 9695 28
7757 9696 9697 28
7758 9696 9698 28
7759 9696 9699 28
7760 9696 9700 28
7761 9701 9702 28
7762 9701 9703 28
7763 9701 9704 28
7764 9701 9705 28
7765 9706 9707 28
7766 9706 9708 28
7767 9706 9709 28
7768 9706 9710 28
7769 9711 9712 28
7770 9711 9713 28
7771 9711 9714 28
7772 9711 9715 28
7773 9716 9717 28
7774 9716 9718 28
7775 9716 9719 28
7776 9716 9720 28
7777 9721 9722 28
7778 9721 9723 28
7779 9721 9724 28
7780 9721 9725 28
7781 9726 9727 28
7782 9726 9728 28
7783 9726 9729 28
7784 9726 9730 28
7785 9731 9732 28
7786 9731 9733 28
7787 9731 9734 28
7788 9731 9735 28
7789 9736 9737 28
7790 9736 9738 28
7791 9736 9739 28
7792 9736 9740 28
7793 9741 9742 28
7794 9741 9743 28
7795 9741 9744 28
7796 9741 9745 28
7797 9746 9747 28
7798 9746 9748 28
7799 9746 9749 28
7800 9746 9750 28
7801 9751 9752 28
7802 9751 9753 28
7803 9751 9754 28
7804 9751 9755 28
7805 9756 9757 28
7806 9756 9758 28
7807 9756 9759 28
7808 9756 9760 28
7809 9761 9762 28
7810 9761 9763 28
7811 9761 9764 28
7812 9761 9765 28
7813 9766 9767 28
7814 9766 9768 28
7815 9766 9769 28
7816 9766 9770 28
7817 9771 9772 28
7818 9771 9773 28
7819 9771 9774 28
7820 9771 9775 28
7821 9776 9777 28
7822 9776 9778 28
7823 9776 9779 28
7824 9776 9780 28
7825 9781 9782 28
7826 9781 9783 28
7827 9781 9784 28
7828 9781 9785 28
7829 9786 9787 28
7830 9786 9788 28
7831 9786 9789 28
7832 9786 9790 28
7833 9791 9792 28
7834 9791 9793 28
7835 9791 9794 28
7836 9791 9795 28
7837 9796 9797 28
7838 9796 9798 28
7839 9796 9799 28
7840 9796 9800 28
7841 9801 9802 28
7842 9801 9803 28
7843 9801 9804 28
7844 9801 9805 28
7845 9806 9807 28
7846 9806 9808 28
7847 9806 9809 28
7848 9806 9810 28
7849 9811 9812 28
7850 9811 9813 28
7851 9811 9814 28
7852 9811 9815 28
7853 9816 9817 28
7854 9816 9818 28
7855 9816 9819 28
7856 9816 9820 28
7857 9821 9822 28
7858 9821 9823 28
7859 9821 9824 28
7860 9821 9825 28
7861 9826 9827 28
7862 9826 9828 28
7863 9826 9829 28
7864 9826 9830 28
7865 9831 9832 28
7866 9831 9833 28
7867 9831 9834 28
7868 9831 9835 28
7869 9836 9837 28
7870 9836 9838 28
7871 9836 9839 28
7872 9836 9840 28
7873 9841 9842 28
7874 9841 9843 28
7875 9841 9844 28
7876 9841 9845 28
7877 9846 9847 28
7878 9846 9848 28
7879 9846 9849 28
7880 9846 9850 28
7881 9851 9852 28
7882 9851 9853 28
7883 9851 9854 28
7884 9851 9855 28
7885 9856 9857 28
7886 9856 9858 28
7887 9856 9859 28
7888 9856 9860 28
7889 9861 9862 28
7890 9861 9863 28
7891 9861 9864 28
7892 9861 9865 28
7893 9866 9867 28
7894 9866 9868 28
7895 9866 9869 28
7896 9866 9870 28
7897 9871 9872 28
7898 9871 9873 28
7899 9871 9874 28
7900 9871 9875 28
7901 9876 9877 28
7902 9876 9878 28
7903 9876 9879 28
7904 9876 9880 28
7905 9881 9882 28
7906 9881 9883 28
7907 9881 9884 28
7908 9881 9885 28
7909 9886 9887 28
7910 9886 9888 28
7911 9886 9889 28
7912 9886 9890 28
7913 9891 9892 28
7914 9891 9893 28
7915 9891 9894 28
7916 9891 9895 28
7917 9896 9897 28
7918 9896 9898 28
7919 9896 9899 28
7920 9896 9900 28
7921 9901 9902 28
7922 9901 9903 28
7923 9901 9904 28
7924 9901 9905 28
7925 9906 9907 28
7926 9906 9908 28
7927 9906 9909 28
7928 9906 9910 28
7929 9911 9912 28
7930 9911 9913 28
7931 9911 9914 28
7932 9911 9915 28
7933 9916 9917 28
7934 9916 9918 28
7935 9916 9919 28
7936 9916 9920 28
7937 9921 9922 28
7938 9921 9923 28
7939 9921 9924 28
7940 9921 9925 28
7941 9926 9927 28
7942 9926 9928 28
7943 9926 9929 28
7944 9926 9930 28
7945 9931 9932 28
7946 9931 9933 28
7947 9931 9934 28
7948 9931 9935 28
7949 9936 9937 28
7950 9936 9938 28
7951 9936 9939 28
7952 9936 9940 28
7953 9941 9942 28
7954 9941 9943 28
7955 9941 9944 28
7956 9941 9945 28
7957 9946 9947 28
7958 9946 9948 28
7959 9946 9949 28
7960 9946 9950 28
7961 9951 9952 28
7962 9951 9953 28
7963 9951 9954 28
7964 9951 9955 28
7965 9956 9957 28
7966 9956 9958 28
7967 9956 9959 28
7968 9956 9960 28
7969 9961 9962 28
7970 9961 9963 28
7971 9961 9964 28
7972 9961 9965 28
7973 9966 9967 28
7974 9966 9968 28
7975 9966 9969 28
7976 9966 9970 28
7977 9971 9972 28
7978 9971 9973 28
7979 9971 9974 28
7980 9971 9975 28
7981 9976 9977 28
7982 9976 9978 28
7983 9976 9979 28
7984 9976 9980 28
7985 9981 9982 28
7986 9981 9983 28
7987 9981 9984 28
7988 9981 9985 28
7989 9986 9987 28
7990 9986 9988 28
7991 9986 9989 28
7992 9986 9990 28
7993 9991 9992 28
7994 9991 9993 28
7995 9991 9994 28
7996 9991 9995 28
7997 9996 9997 28
7998 9996 9998 28
7999 9996 9999 28
8000 9996 10000 28
8001 10001 10002 28
8002 10001 10003 28
8003 10001 10004 28
8004 10001 10005 28
8005 10006 10007 28
8006 10006 10008 28
8007 10006 10009 28
8008 10006 10010 28
8009 10011 10012 28
8010 10011 10013 28
8011 10011 10014 28
8012 10011 10015 28
8013 10016 10017 28
8014 10016 10018 28
8015 10016 10019 28
8016 10016 10020 28
8017 10021 10022 28
8018 10021 10023 28
8019 10021 10024 28
8020 10021 10025 28
8021 10026 10027 28
8022 10026 10028 28
8023 10026 10029 28
8024 10026 10030 28
8025 10031 10032 28
8026 10031 10033 28
8027 10031 10034 28
8028 10031 10035 28
8029 10036 10037 28
8030 10036 10038 28
8031 10036 10039 28
8032 10036 10040 28
8033 10041 10042 28
8034 10041 10043 28
8035 10041 10044 28
8036 10041 10045 28
8037 10046 10047 28
8038 10046 10048 28
8039 10046 10049 28
8040 10046 10050 28
8041 10051 10052 28
8042 10051 10053 28
8043 10051 10054 28
8044 10051 10055 28
8045 10056 10057 28
8046 10056 10058 28
8047 10056 10059 28
8048 10056 10060 28
8049 10061 10062 28
8050 10061 10063 28
8051 10061 10064 28
8052 10061 10065 28
8053 10066 10067 28
8054 10066 10068 28
8055 10066 10069 28
8056 10066 10070 28
8057 10071 10072 28
8058 10071 10073 28
8059 10071 10074 28
8060 10071 10075 28
8061 10076 10077 28
8062 10076 10078 28
8063 10076 10079 28
8064 10076 10080 28
8065 10081 10082 28
8066 10081 10083 28
8067 10081 10084 28
8068 10081 10085 28
8069 10086 10087 28
8070 10086 10088 28
8071 10086 10089 28
8072 10086 10090 28
8073 10091 10092 28
8074 10091 10093 28
8075 10091 10094 28
8076 10091 10095 28
8077 10096 10097 28
8078 10096 10098 28
8079 10096 10099 28
8080 10096 10100 28
8081 10101 10102 28
8082 10101 10103 28
8083 10101 10104 28
8084 10101 10105 28
8085 10106 10107 28
8086 10106 10108 28
8087 10106 10109 28
8088 10106 10110 28
8089 10111 10112 28
8090 10111 10113 28
8091 10111 10114 28
8092 10111 10115 28
8093 10116 10117 28
8094 10116 10118 28
8095 10116 10119 28
8096 10116 10120 28
8097 10121 10122 28
8098 10121 10123 28
8099 10121 10124 28
8100 10121 10125 28
8101 10126 10127 28
8102 10126 10128 28
8103 10126 10129 28
8104 10126 10130 28
8105 10131 10132 28
8106 10131 10133 28
8107 10131 10134 28
8108 10131 10135 28
8109 10136 10137 28
8110 10136 10138 28
8111 10136 10139 28
8112 10136 10140 28
8113 10141 10142 28
8114 10141 10143 28
8115 10141 10144 28
8116 10141 10145 28
8117 10146 10147 28
8118 10146 10148 28
8119 10146 10149 28
8120 10146 10150 28
8121 10151 10152 28
8122 10151 10153 28
8123 10151 10154 28
8124 10151 10155 28
8125 10156 10157 28
8126 10156 10158 28
8127 10156 10159 28
8128 10156 10160 28
8129 10161 10162 28
8130 10161 10163 28
8131 10161 10164 28
8132 10161 10165 28
8133 10166 10167 28
8134 10166 10168 28
8135 10166 10169 28
8136 10166 10170 28
8137 10171 10172 28
8138 10171 10173 28
8139 10171 10174 28
8140 10171 10175 28
8141 10176 10177 28
8142 10176 10178 28
8143 10176 10179 28
8144 10176 10180 28
8145 10181 10182 28
8146 10181 10183 28
8147 10181 10184 28
8148 10181 10185 28
8149 10186 10187 28
8150 10186 10188 28
8151 10186 10189 28
8152 10186 10190 28
8153 10191 10192 28
8154 10191 10193 28
8155 10191 10194 28
8156 10191 10195 28
8157 10196 10197 28
8158 10196 10198 28
8159 10196 10199 28
8160 10196 10200 28
8161 10201 10202 28
8162 10201 10203 28
8163 10201 10204 28
8164 10201 10205 28
8165 10206 10207 28
8166 10206 10208 28
8167 10206 10209 28
8168 10206 10210 28
8169 10211 10212 28
8170 10211 10213 28
8171 10211 10214 28
8172 10211 10215 28
8173 10216 10217 28
8174 10216 10218 28
8175 10216 10219 28
8176 10216 10220 28
8177 10221 10222 28
8178 10221 10223 28
8179 10221 10224 28
8180 10221 10225 28
8181 10226 10227 28
8182 10226 10228 28
8183 10226 10229 28
8184 10226 10230 28
8185 10231 10232 28
8186 10231 10233 28
8187 10231 10234 28
8188 10231 10235 28
8189 10236 10237 28
8190 10236 10238 28
8191 10236 10239 28
8192 10236 10240 28
8193 10241 10242 28
8194 10241 10243 28
8195 10241 10244 28
8196 10241 10245 28
8197 10246 10247 28
8198 10246 10248 28
8199 10246 10249 28
8200 10246 10250 28
8201 10251 10252 28
8202 10251 10253 28
8203 10251 10254 28
8204 10251 10255 28
8205 10256 10257 28
8206 10256 10258 28
8207 10256 10259 28
8208 10256 10260 28
8209 10261 10262 28
8210 10261 10263 28
8211 10261 10264 28
8212 10261 10265 28
8213 10266 10267 28
8214 10266 10268 28
8215 10266 10269 28
8216 10266 10270 28
8217 10271 10272 28
8218 10271 10273 28
8219 10271 10274 28
8220 10271 10275 28
8221 10276 10277 28
8222 10276 10278 28
8223 10276 10279 28
8224 10276 10280 28
8225 10281 10282 28
8226 10281 10283 28
8227 10281 10284 28
8228 10281 10285 28
8229 10286 10287 28
8230 10286 10288 28
8231 10286 10289 28
8232 10286 10290 28
8233 10291 10292 28
8234 10291 10293 28
8235 10291 10294 28
8236 10291 10295 28
8237 10296 10297 28
8238 10296 10298 28
8239 10296 10299 28
8240 10296 10300 28
8241 10301 10302 28
8242 10301 10303 28
8243 10301 10304 28
8244 10301 10305 28
8245 10306 10307 28
8246 10306 10308 28
8247 10306 10309 28
8248 10306 10310 28
8249 10311 10312 28
8250 10311 10313 28
8251 10311 10314 28
8252 10311 10315 28
8253 10316 10317 28
8254 10316 10318 28
8255 10316 10319 28
8256 10316 10320 28
8257 10321 10322 28
8258 10321 10323 28
8259 10321 10324 28
8260 10321 10325 28
8261 10326 10327 28
8262 10326 10328 28
8263 10326 10329 28
8264 10326 10330 28
8265 10331 10332 28
8266 10331 10333 28
8267 10331 10334 28
8268 10331 10335 28
8269 10336 10337 28
8270 10336 10338 28
8271 10336 10339 28
8272 10336 10340 28
8273 10341 10342 28
8274 10341 10343 28
8275 10341 10344 28
8276 10341 10345 28
8277 10346 10347 28
8278 10346 10348 28
8279 10346 10349 28
8280 10346 10350 28
8281 10351 10352 28
8282 10351 10353 28
8283 10351 10354 28
8284 10351 10355 28
8285 10356 10357 28
8286 10356 10358 28
8287 10356 10359 28
8288 10356 10360 28
8289 10361 10362 28
8290 10361 10363 28
8291 10361 10364 28
8292 10361 10365 28
8293 10366 10367 28
8294 10366 10368 28
8295 10366 10369 28
8296 10366 10370 28
8297 10371 10372 28
8298 10371 10373 28
8299 10371 10374 28
8300 10371 10375 28
8301 10376 10377 28
8302 10376 10378 28
8303 10376 10379 28
8304 10376 10380 28
8305 10381 10382 28
8306 10381 10383 28
8307 10381 10384 28
8308 10381 10385 28
8309 10386 10387 28
8310 10386 10388 28
8311 10386 10389 28
8312 10386 10390 28
8313 10391 10392 28
8314 10391 10393 28
8315 10391 10394 28
8316 10391 10395 28
8317 10396 10397 28
8318 10396 10398 28
8319 10396 10399 28
8320 10396 10400 28
8321 10401 10402 28
8322 10401 10403 28
8323 10401 10404 28
8324 10401 10405 28
8325 10406 10407 28
8326 10406 10408 28
8327 10406 10409 28
8328 10406 10410 28
8329 10411 10412 28
8330 10411 10413 28
8331 10411 10414 28
8332 10411 10415 28
8333 10416 10417 28
8334 10416 10418 28
8335 10416 10419 28
8336 10416 10420 28
8337 10421 10422 28
8338 10421 10423 28
8339 10421 10424 28
8340 10421 10425 28
8341 10426 10427 28
8342 10426 10428 28
8343 10426 10429 28
8344 10426 10430 28
8345 10431 10432 28
8346 10431 10433 28
8347 10431 10434 28
8348 10431 10435 28
8349 10436 10437 28
8350 10436 10438 28
8351 10436 10439 28
8352 10436 10440 28
8353 10441 10442 28
8354 10441 10443 28
8355 10441 10444 28
8356 10441 10445 28
8357 10446 10447 28
8358 10446 10448 28
8359 10446 10449 28
8360 10446 10450 28
8361 10451 10452 28
8362 10451 10453 28
8363 10451 10454 28
8364 10451 10455 28
8365 10456 10457 28
8366 10456 10458 28
8367 10456 10459 28
8368 10456 10460 28
8369 10461 10462 28
8370 10461 10463 28
8371 10461 10464 28
8372 10461 10465 28
8373 10466 10467 28
8374 10466 10468 28
8375 10466 10469 28
8376 10466 10470 28
8377 10471 10472 28
8378 10471 10473 28
8379 10471 10474 28
8380 10471 10475 28
8381 10476 10477 28
8382 10476 10478 28
8383 10476 10479 28
8384 10476 10480 28
8385 10481 10482 28
8386 10481 10483 28
8387 10481 10484 28
8388 10481 10485 28
8389 10486 10487 28
8390 10486 10488 28
8391 10486 10489 28
8392 10486 10490 28
8393 10491 10492 28
8394 10491 10493 28
8395 10491 10494 28
8396 10491 10495 28
8397 10496 10497 28
8398 10496 10498 28
8399 10496 10499 28
8400 10496 10500 28
8401 10501 10502 28
8402 10501 10503 28
8403 10501 10504 28
8404 10501 10505 28
8405 10506 10507 28
8406 10506 10508 28
8407 10506 10509 28
8408 10506 10510 28
8409 10511 10512 28
8410 10511 10513 28
8411 10511 10514 28
8412 10511 10515 28
8413 10516 10517 28
8414 10516 10518 28
8415 10516 10519 28
8416 10516 10520 28
8417 10521 10522 28
8418 10521 10523 28
8419 10521 10524 28
8420 10521 10525 28
8421 10526 10527 28
8422 10526 10528 28
8423 10526 10529 28
8424 10526 10530 28
8425 10531 10532 28
8426 10531 10533 28
8427 10531 10534 28
8428 10531 10535 28
8429 10536 10537 28
8430 10536 10538 28
8431 10536 10539 28
8432 10536 10540 28
8433 10541 10542 28
8434 10541 10543 28
8435 10541 10544 28
8436 10541 10545 28
8437 10546 10547 28
8438 10546 10548 28
8439 10546 10549 28
8440 10546 10550 28
8441 10551 10552 28
8442 10551 10553 28
8443 10551 10554 28
8444 10551 10555 28
8445 10556 10557 28
8446 10556 10558 28
8447 10556 10559 28
8448 10556 10560 28
8449 10561 10562 28
8450 10561 10563 28
8451 10561 10564 28
8452 10561 10565 28
8453 10566 10567 28
8454 10566 10568 28
8455 10566 10569 28
8456 10566 10570 28
8457 10571 10572 28
8458 10571 10573 28
8459 10571 10574 28
8460 10571 10575 28
8461 10576 10577 28
8462 10576 10578 28
8463 10576 10579 28
8464 10576 10580 28
8465 10581 10582 28
8466 10581 10583 28
8467 10581 10584 28
8468 10581 10585 28
8469 10586 10587 28
8470 10586 10588 28
8471 10586 10589 28
8472 10586 10590 28
8473 10591 10592 28
8474 10591 10593 28
8475 10591 10594 28
8476 10591 10595 28
8477 10596 10597 28
8478 10596 10598 28
8479 10596 10599 28
8480 10596 10600 28
8481 10601 10602 28
8482 10601 10603 28
8483 10601 10604 28
8484 10601 10605 28
8485 10606 10607 28
8486 10606 10608 28
8487 10606 10609 28
8488 10606 10610 28
8489 10611 10612 28
8490 10611 10613 28
8491 10611 10614 28
8492 10611 10615 28
8493 10616 10617 28
8494 10616 10618 28
8495 10616 10619 28
8496 10616 10620 28
8497 10621 10622 28
8498 10621 10623 28
8499 10621 10624 28
8500 10621 10625 28
8501 10626 10627 28
8502 10626 10628 28
8503 10626 10629 28
8504 10626 10630 28
8505 10631 10632 28
8506 10631 10633 28
8507 10631 10634 28
8508 10631 10635 28
8509 10636 10637 28
8510 10636 10638 28
8511 10636 10639 28
8512 10636 10640 28
8513 10641 10642 28
8514 10641 10643 28
8515 10641 10644 28
8516 10641 10645 28
8517 10646 10647 28
8518 10646 10648 28
8519 10646 10649 28
8520 10646 10650 28
8521 10651 10652 28
8522 10651 10653 28
8523 10651 10654 28
8524 10651 10655 28
8525 10656 10657 28
8526 10656 10658 28
8527 10656 10659 28
8528 10656 10660 28
8529 10661 10662 28
8530 10661 10663 28
8531 10661 10664 28
8532 10661 10665 28
8533 10666 10667 28
8534 10666 10668 28
8535 10666 10669 28
8536 10666 10670 28
8537 10671 10672 28
8538 10671 10673 28
8539 10671 10674 28
8540 10671 10675 28
8541 10676 10677 28
8542 10676 10678 28
8543 10676 10679 28
8544 10676 10680 28
8545 10681 10682 28
8546 10681 10683 28
8547 10681 10684 28
8548 10681 10685 28
8549 10686 10687 28
8550 10686 10688 28
8551 10686 10689 28
8552 10686 10690 28
8553 10691 10692 28
8554 10691 10693 28
8555 10691 10694 28
8556 10691 10695 28
8557 10696 10697 28
8558 10696 10698 28
8559 10696 10699 28
8560 10696 10700 28
8561 10701 10702 28
8562 10701 10703 28
8563 10701 10704 28
8564 10701 10705 28
8565 10706 10707 28
8566 10706 10708 28
8567 10706 10709 28
8568 10706 10710 28
8569 10711 10712 28
8570 10711 10713 28
8571 10711 10714 28
8572 10711 10715 28
8573 10716 10717 28
8574 10716 10718 28
8575 10716 10719 28
8576 10716 10720 28
8577 10721 10722 28
8578 10721 10723 28
8579 10721 10724 28
8580 10721 10725 28
8581 10726 10727 28
8582 10726 10728 28
8583 10726 10729 28
8584 10726 10730 28
8585 10731 10732 28
8586 10731 10733 28
8587 10731 10734 28
8588 10731 10735 28
8589 10736 10737 28
8590 10736 10738 28
8591 10736 10739 28
8592 10736 10740 28
8593 10741 10742 28
8594 10741 10743 28
8595 10741 10744 28
8596 10741 10745 28
8597 10746 10747 28
8598 10746 10748 28
8599 10746 10749 28
8600 10746 10750 28
8601 10751 10752 28
8602 10751 10753 28
8603 10751 10754 28
8604 10751 10755 28
8605 10756 10757 28
8606 10756 10758 28
8607 10756 10759 28
8608 10756 10760 28
8609 10761 10762 28
8610 10761 10763 28
8611 10761 10764 28
8612 10761 10765 28
8613 10766 10767 28
8614 10766 10768 28
8615 10766 10769 28
8616 10766 10770 28
8617 10771 10772 28
8618 10771 10773 28
8619 10771 10774 28
8620 10771 10775 28
8621 10776 10777 28
8622 10776 10778 28
8623 10776 10779 28
8624 10776 10780 28
8625 10781 10782 28
8626 10781 10783 28
8627 10781 10784 28
8628 10781 10785 28
8629 10786 10787 28
8630 10786 10788 28
8631 10786 10789 28
8632 10786 10790 28
8633 10791 10792 28
8634 10791 10793 28
8635 10791 10794 28
8636 10791 10795 28
8637 10796 10797 28
8638 10796 10798 28
8639 10796 10799 28
8640 10796 10800 28
8641 10801 10802 28
8642 10801 10803 28
8643 10801 10804 28
8644 10801 10805 28
8645 10806 10807 28
8646 10806 10808 28
8647 10806 10809 28
8648 10806 10810 28
8649 10811 10812 28
8650 10811 10813 28
8651 10811 10814 28
8652 10811 10815 28
8653 10816 10817 28
8654 10816 10818 28
8655 10816 10819 28
8656 10816 10820 28
8657 10821 10822 28
8658 10821 10823 28
8659 10821 10824 28
8660 10821 10825 28
8661 10826 10827 28
8662 10826 10828 28
8663 10826 10829 28
8664 10826 10830 28
8665 10831 10832 28
8666 10831 10833 28
8667 10831 10834 28
8668 10831 10835 28
8669 10836 10837 28
8670 10836 10838 28
8671 10836 10839 28
8672 10836 10840 28
8673 10841 10842 28
8674 10841 10843 28
8675 10841 10844 28
8676 10841 10845 28
8677 10846 10847 28
8678 10846 10848 28
8679 10846 10849 28
8680 10846 10850 28
8681 10851 10852 28
8682 10851 10853 28
8683 10851 10854 28
8684 10851 10855 28
8685 10856 10857 28
8686 10856 10858 28
8687 10856 10859 28
8688 10856 10860 28
8689 10861 10862 28
8690 10861 10863 28
8691 10861 10864 28
8692 10861 10865 28
8693 10866 10867 28
8694 10866 10868 28
8695 10866 10869 28
8696 10866 10870 28
8697 10871 10872 28
8698 10871 10873 28
8699 10871 10874 28
8700 10871 10875 28
8701 10876 10877 28
8702 10876 10878 28
8703 10876 10879 28
8704 10876 10880 28
8705 10881 10882 28
8706 10881 10883 28
8707 10881 10884 28
8708 10881 10885 28
8709 10886 10887 28
8710 10886 10888 28
8711 10886 10889 28
8712 10886 10890 28
8713 10891 10892 28
8714 10891 10893 28
8715 10891 10894 28
8716 10891 10895 28
8717 10896 10897 28
8718 10896 10898 28
8719 10896 10899 28
8720 10896 10900 28
8721 10901 10902 28
8722 10901 10903 28
8723 10901 10904 28
8724 10901 10905 28
8725 10906 10907 28
8726 10906 10908 28
8727 10906 10909 28
8728 10906 10910 28
8729 10911 10912 28
8730 10911 10913 28
8731 10911 10914 28
8732 10911 10915 28
8733 10916 10917 28
8734 10916 10918 28
8735 10916 10919 28
8736 10916 10920 28
8737 10921 10922 28
8738 10921 10923 28
8739 10921 10924 28
8740 10921 10925 28
8741 10926 10927 28
8742 10926 10928 28
8743 10926 10929 28
8744 10926 10930 28
8745 10931 10932 28
8746 10931 10933 28
8747 10931 10934 28
8748 10931 10935 28
8749 10936 10937 28
8750 10936 10938 28
8751 10936 10939 28
8752 10936 10940 28
8753 10941 10942 28
8754 10941 10943 28
8755 10941 10944 28
8756 10941 10945 28
8757 10946 10947 28
8758 10946 10948 28
8759 10946 10949 28
8760 10946 10950 28
8761 10951 10952 28
8762 10951 10953 28
8763 10951 10954 28
8764 10951 10955 28
8765 10956 10957 28
8766 10956 10958 28
8767 10956 10959 28
8768 10956 10960 28
8769 10961 10962 28
8770 10961 10963 28
8771 10961 10964 28
8772 10961 10965 28
8773 10966 10967 28
8774 10966 10968 28
8775 10966 10969 28
8776 10966 10970 28
8777 10971 10972 28
8778 10971 10973 28
8779 10971 10974 28
8780 10971 10975 28
8781 10976 10977 28
8782 10976 10978 28
8783 10976 10979 28
8784 10976 10980 28
8785 10981 10982 28
8786 10981 10983 28
8787 10981 10984 28
8788 10981 10985 28
8789 10986 10987 28
8790 10986 10988 28
8791 10986 10989 28
8792 10986 10990 28
8793 10991 10992 28
8794 10991 10993 28
8795 10991 10994 28
8796 10991 10995 28
8797 10996 10997 28
8798 10996 10998 28
8799 10996 10999 28
8800 10996 11000 28
8801 11001 11002 28
8802 11001 11003 28
8803 11001 11004 28
8804 11001 11005 28
8805 11006 11007 28
8806 11006 11008 28
8807 11006 11009 28
8808 11006 11010 28
8809 11011 11012 28
8810 11011 11013 28
8811 11011 11014 28
8812 11011 11015 28
8813 11016 11017 28
8814 11016 11018 28
8815 11016 11019 28
8816 11016 11020 28
8817 11021 11022 28
8818 11021 11023 28
8819 11021 11024 28
8820 11021 11025 28
8821 11026 11027 28
8822 11026 11028 28
8823 11026 11029 28
8824 11026 11030 28
8825 11031 11032 28
8826 11031 11033 28
8827 11031 11034 28
8828 11031 11035 28
8829 11036 11037 28
8830 11036 11038 28
8831 11036 11039 28
8832 11036 11040 28
8833 11041 11042 28
8834 11041 11043 28
8835 11041 11044 28
8836 11041 11045 28
8837 11046 11047 28
8838 11046 11048 28
8839 11046 11049 28
8840 11046 11050 28
8841 11051 11052 28
8842 11051 11053 28
8843 11051 11054 28
8844 11051 11055 28
8845 11056 11057 28
8846 11056 11058 28
8847 11056 11059 28
8848 11056 11060 28
8849 11061 11062 28
8850 11061 11063 28
8851 11061 11064 28
8852 11061 11065 28
8853 11066 11067 28
8854 11066 11068 28
8855 11066 11069 28
8856 11066 11070 28
8857 11071 11072 28
8858 11071 11073 28
8859 11071 11074 28
8860 11071 11075 28
8861 11076 11077 28
8862 11076 11078 28
8863 11076 11079 28
8864 11076 11080 28
8865 11081 11082 28
8866 11081 11083 28
8867 11081 11084 28
8868 11081 11085 28
8869 11086 11087 28
8870 11086 11088 28
8871 11086 11089 28
8872 11086 11090 28
8873 11091 11092 28
8874 11091 11093 28
8875 11091 11094 28
8876 11091 11095 28
8877 11096 11097 28
8878 11096 11098 28
8879 11096 11099 28
8880 11096 11100 28
8881 11101 11102 28
8882 11101 11103 28
8883 11101 11104 28
8884 11101 11105 28
8885 11106 11107 28
8886 11106 11108 28
8887 11106 11109 28
8888 11106 11110 28
8889 11111 11112 28
8890 11111 11113 28
8891 11111 11114 28
8892 11111 11115 28
8893 11116 11117 28
8894 11116 11118 28
8895 11116 11119 28
8896 11116 11120 28
8897 11121 11122 28
8898 11121 11123 28
8899 11121 11124 28
8900 11121 11125 28
8901 11126 11127 28
8902 11126 11128 28
8903 11126 11129 28
8904 11126 11130 28
8905 11131 11132 28
8906 11131 11133 28
8907 11131 11134 28
8908 11131 11135 28
8909 11136 11137 28
8910 11136 11138 28
8911 11136 11139 28
8912 11136 11140 28
8913 11141 11142 28
8914 11141 11143 28
8915 11141 11144 28
8916 11141 11145 28
8917 11146 11147 28
8918 11146 11148 28
8919 11146 11149 28
8920 11146 11150 28
8921 11151 11152 28
8922 11151 11153 28
8923 11151 11154 28
8924 11151 11155 28
8925 11156 11157 28
8926 11156 11158 28
8927 11156 11159 28
8928 11156 11160 28
8929 11161 11162 28
8930 11161 11163 28
8931 11161 11164 28
8932 11161 11165 28
8933 11166 11167 28
8934 11166 11168 28
8935 11166 11169 28
8936 11166 11170 28
8937 11171 11172 28
8938 11171 11173 28
8939 11171 11174 28
8940 11171 11175 28
8941 11176 11177 28
8942 11176 11178 28
8943 11176 11179 28
8944 11176 11180 28
8945 11181 11182 28
8946 11181 11183 28
8947 11181 11184 28
8948 11181 11185 28
8949 11186 11187 28
8950 11186 11188 28
8951 11186 11189 28
8952 11186 11190 28
8953 11191 11192 28
8954 11191 11193 28
8955 11191 11194 28
8956 11191 11195 28
8957 11196 11197 28
8958 11196 11198 28
8959 11196 11199 28
8960 11196 11200 28
8961 11201 11202 28
8962 11201 11203 28
8963 11201 11204 28
8964 11201 11205 28
8965 11206 11207 28
8966 11206 11208 28
8967 11206 11209 28
8968 11206 11210 28
8969 11211 11212 28
8970 11211 11213 28
8971 11211 11214 28
8972 11211 11215 28
8973 11216 11217 28
8974 11216 11218 28
8975 11216 11219 28
8976 11216 11220 28
8977 11221 11222 28
8978 11221 11223 28
8979 11221 11224 28
8980 11221 11225 28
8981 11226 11227 28
8982 11226 11228 28
8983 11226 11229 28
8984 11226 11230 28
8985 11231 11232 28
8986 11231 11233 28
8987 11231 11234 28
8988 11231 11235 28
8989 11236 11237 28
8990 11236 11238 28
8991 11236 11239 28
8992 11236 11240 28
8993 11241 11242 28
8994 11241 11243 28
8995 11241 11244 28
8996 11241 11245 28
8997 11246 11247 28
8998 11246 11248 28
8999 11246 11249 28
9000 11246 11250 28
9001 11251 11252 28
9002 11251 11253 28
9003 11251 11254 28
9004 11251 11255 28
9005 11256 11257 28
9006 11256 11258 28
9007 11256 11259 28
9008 11256 11260 28
9009 11261 11262 28
9010 11261 11263 28
9011 11261 11264 28
9012 11261 11265 28
9013 11266 11267 28
9014 11266 11268 28
9015 11266 11269 28
9016 11266 11270 28
9017 11271 11272 28
9018 11271 11273 28
9019 11271 11274 28
9020 11271 11275 28
9021 11276 11277 28
9022 11276 11278 28
9023 11276 11279 28
9024 11276 11280 28
9025 11281 11282 28
9026 11281 11283 28
9027 11281 11284 28
9028 11281 11285 28
9029 11286 11287 28
9030 11286 11288 28
9031 11286 11289 28
9032 11286 11290 28
9033 11291 11292 28
9034 11291 11293 28
9035 11291 11294 28
9036 11291 11295 28
9037 11296 11297 28
9038 11296 11298 28
9039 11296 11299 28
9040 11296 11300 28
9041 11301 11302 28
9042 11301 11303 28
9043 11301 11304 28
9044 11301 11305 28
9045 11306 11307 28
9046 11306 11308 28
9047 11306 11309 28
9048 11306 11310 28
9049 11311 11312 28
9050 11311 11313 28
9051 11311 11314 28
9052 11311 11315 28
9053 11316 11317 28
9054 11316 11318 28
9055 11316 11319 28
9056 11316 11320 28
9057 11321 11322 28
9058 11321 11323 28
9059 11321 11324 28
9060 11321 11325 28
9061 11326 11327 28
9062 11326 11328 28
9063 11326 11329 28
9064 11326 11330 28
9065 11331 11332 28
9066 11331 11333 28
9067 11331 11334 28
9068 11331 11335 28
9069 11336 11337 28
9070 11336 11338 28
9071 11336 11339 28
9072 11336 11340 28
9073 11341 11342 28
9074 11341 11343 28
9075 11341 11344 28
9076 11341 11345 28
9077 11346 11347 28
9078 11346 11348 28
9079 11346 11349 28
9080 11346 11350 28
9081 11351 11352 28
9082 11351 11353 28
9083 11351 11354 28
9084 11351 11355 28
9085 11356 11357 28
9086 11356 11358 28
9087 11356 11359 28
9088 11356 11360 28
9089 11361 11362 28
9090 11361 11363 28
9091 11361 11364 28
9092 11361 11365 28
9093 11366 11367 28
9094 11366 11368 28
9095 11366 11369 28
9096 11366 11370 28
9097 11371 11372 28
9098 11371 11373 28
9099 11371 11374 28
9100 11371 11375 28
9101 11376 11377 28
9102 11376 11378 28
9103 11376 11379 28
9104 11376 11380 28
9105 11381 11382 28
9106 11381 11383 28
9107 11381 11384 28
9108 11381 11385 28
9109 11386 11387 28
9110 11386 11388 28
9111 11386 11389 28
9112 11386 11390 28
9113 11391 11392 28
9114 11391 11393 28
9115 11391 11394 28
9116 11391 11395 28
9117 11396 11397 28
9118 11396 11398 28
9119 11396 11399 28
9120 11396 11400 28
9121 11401 11402 28
9122 11401 11403 28
9123 11401 11404 28
9124 11401 11405 28
9125 11406 11407 28
9126 11406 11408 28
9127 11406 11409 28
9128 11406 11410 28
9129 11411 11412 28
9130 11411 11413 28
9131 11411 11414 28
9132 11411 11415 28
9133 11416 11417 28
9134 11416 11418 28
9135 11416 11419 28
9136 11416 11420 28
9137 11421 11422 28
9138 11421 11423 28
9139 11421 11424 28
9140 11421 11425 28
9141 11426 11427 28
9142 11426 11428 28
9143 11426 11429 28
9144 11426 11430 28
9145 11431 11432 28
9146 11431 11433 28
9147 11431 11434 28
9148 11431 11435 28
9149 11436 11437 28
9150 11436 11438 28
9151 11436 11439 28
9152 11436 11440 28
9153 11441 11442 28
9154 11441 11443 28
9155 11441 11444 28
9156 11441 11445 28
9157 11446 11447 28
9158 11446 11448 28
9159 11446 11449 28
9160 11446 11450 28
9161 11451 11452 28
9162 11451 11453 28
9163 11451 11454 28
9164 11451 11455 28
9165 11456 11457 28
9166 11456 11458 28
9167 11456 11459 28
9168 11456 11460 28
9169 11461 11462 28
9170 11461 11463 28
9171 11461 11464 28
9172 11461 11465 28
9173 11466 11467 28
9174 11466 11468 28
9175 11466 11469 28
9176 11466 11470 28
9177 11471 11472 28
9178 11471 11473 28
9179 11471 11474 28
9180 11471 11475 28
9181 11476 11477 28
9182 11476 11478 28
9183 11476 11479 28
9184 11476 11480 28
9185 11481 11482 28
9186 11481 11483 28
9187 11481 11484 28
9188 11481 11485 28
9189 11486 11487 28
9190 11486 11488 28
9191 11486 11489 28
9192 11486 11490 28
9193 11491 11492 28
9194 11491 11493 28
9195 11491 11494 28
9196 11491 11495 28
9197 11496 11497 28
9198 11496 11498 28
9199 11496 11499 28
9200 11496 11500 28
9201 11501 11502 28
9202 11501 11503 28
9203 11501 11504 28
9204 11501 11505 28
9205 11506 11507 28
9206 11506 11508 28
9207 11506 11509 28
9208 11506 11510 28
9209 11511 11512 28
9210 11511 11513 28
9211 11511 11514 28
9212 11511 11515 28
9213 11516 11517 28
9214 11516 11518 28
9215 11516 11519 28
9216 11516 11520 28
9217 11521 11522 28
9218 11521 11523 28
9219 11521 11524 28
9220 11521 11525 28
9221 11526 11527 28
9222 11526 11528 28
9223 11526 11529 28
9224 11526 11530 28
9225 11531 11532 28
9226 11531 11533 28
9227 11531 11534 28
9228 11531 11535 28
9229 11536 11537 28
9230 11536 11538 28
9231 11536 11539 28
9232 11536 11540 28
9233 11541 11542 28
9234 11541 11543 28
9235 11541 11544 28
9236 11541 11545 28
9237 11546 11547 28
9238 11546 11548 28
9239 11546 11549 28
9240 11546 11550 28
9241 11551 11552 28
9242 11551 11553 28
9243 11551 11554 28
9244 11551 11555 28
9245 11556 11557 28
9246 11556 11558 28
9247 11556 11559 28
9248 11556 11560 28
9249 11561 11562 28
9250 11561 11563 28
9251 11561 11564 28
9252 11561 11565 28
9253 11566 11567 28
9254 11566 11568 28
9255 11566 11569 28
9256 11566 11570 28
9257 11571 11572 28
9258 11571 11573 28
9259 11571 11574 28
9260 11571 11575 28
9261 11576 11577 28
9262 11576 11578 28
9263 11576 11579 28
9264 11576 11580 28
9265 11581 11582 28
9266 11581 11583 28
9267 11581 11584 28
9268 11581 11585 28
9269 11586 11587 28
9270 11586 11588 28
9271 11586 11589 28
9272 11586 11590 28
9273 11591 11592 28
9274 11591 11593 28
9275 11591 11594 28
9276 11591 11595 28
9277 11596 11597 28
9278 11596 11598 28
9279 11596 11599 28
9280 11596 11600 28
9281 11601 11602 28
9282 11601 11603 28
9283 11601 11604 28
9284 11601 11605 28
9285 11606 11607 28
9286 11606 11608 28
9287 11606 11609 28
9288 11606 11610 28
9289 11611 11612 28
9290 11611 11613 28
9291 11611 11614 28
9292 11611 11615 28
9293 11616 11617 28
9294 11616 11618 28
9295 11616 11619 28
9296 11616 11620 28
9297 11621 11622 28
9298 11621 11623 28
9299 11621 11624 28
9300 11621 11625 28
9301 11626 11627 28
9302 11626 11628 28
9303 11626 11629 28
9304 11626 11630 28
9305 11631 11632 28
9306 11631 11633 28
9307 11631 11634 28
9308 11631 11635 28
9309 11636 11637 28
9310 11636 11638 28
9311 11636 11639 28
9312 11636 11640 28
9313 11641 11642 28
9314 11641 11643 28
9315 11641 11644 28
9316 11641 11645 28
9317 11646 11647 28
9318 11646 11648 28
9319 11646 11649 28
9320 11646 11650 28
9321 11651 11652 28
9322 11651 11653 28
9323 11651 11654 28
9324 11651 11655 28
9325 11656 11657 28
9326 11656 11658 28
9327 11656 11659 28
9328 11656 11660 28
9329 11661 11662 28
9330 11661 11663 28
9331 11661 11664 28
9332 11661 11665 28
9333 11666 11667 28
9334 11666 11668 28
9335 11666 11669 28
9336 11666 11670 28
9337 11671 11672 28
9338 11671 11673 28
9339 11671 11674 28
9340 11671 11675 28
9341 11676 11677 28
9342 11676 11678 28
9343 11676 11679 28
9344 11676 11680 28
9345 11681 11682 28
9346 11681 11683 28
9347 11681 11684 28
9348 11681 11685 28
9349 11686 11687 28
9350 11686 11688 28
9351 11686 11689 28
9352 11686 11690 28
9353 11691 11692 28
9354 11691 11693 28
9355 11691 11694 28
9356 11691 11695 28
9357 11696 11697 28
9358 11696 11698 28
9359 11696 11699 28
9360 11696 11700 28
9361 11701 11702 28
9362 11701 11703 28
9363 11701 11704 28
9364 11701 11705 28
9365 11706 11707 28
9366 11706 11708 28
9367 11706 11709 28
9368 11706 11710 28
9369 11711 11712 28
9370 11711 11713 28
9371 11711 11714 28
9372 11711 11715 28
9373 11716 11717 28
9374 11716 11718 28
9375 11716 11719 28
9376 11716 11720 28
9377 11721 11722 28
9378 11721 11723 28
9379 11721 11724 28
9380 11721 11725 28
9381 11726 11727 28
9382 11726 11728 28
9383 11726 11729 28
9384 11726 11730 28
9385 11731 11732 28
9386 11731 11733 28
9387 11731 11734 28
9388 11731 11735 28
9389 11736 11737 28
9390 11736 11738 28
9391 11736 11739 28
9392 11736 11740 28
9393 11741 11742 28
9394 11741 11743 28
9395 11741 11744 28
9396 11741 11745 28
9397 11746 11747 28
9398 11746 11748 28
9399 11746 11749 28
9400 11746 11750 28
9401 11751 11752 28
9402 11751 11753 28
9403 11751 11754 28
9404 11751 11755 28
9405 11756 11757 28
9406 11756 11758 28
9407 11756 11759 28
9408 11756 11760 28
9409 11761 11762 28
9410 11761 11763 28
9411 11761 11764 28
9412 11761 11765 28
9413 11766 11767 28
9414 11766 11768 28
9415 11766 11769 28
9416 11766 11770 28
9417 11771 11772 28
9418 11771 11773 28
9419 11771 11774 28
9420 11771 11775 28
9421 11776 11777 28
9422 11776 11778 28
9423 11776 11779 28
9424 11776 11780 28
9425 11781 11782 28
9426 11781 11783 28
9427 11781 11784 28
9428 11781 11785 28
9429 11786 11787 28
9430 11786 11788 28
9431 11786 11789 28
9432 11786 11790 28
9433 11791 11792 28
9434 11791 11793 28
9435 11791 11794 28
9436 11791 11795 28
9437 11796 11797 28
9438 11796 11798 28
9439 11796 11799 28
9440 11796 11800 28
9441 11801 11802 28
9442 11801 11803 28
9443 11801 11804 28
9444 11801 11805 28
9445 11806 11807 28
9446 11806 11808 28
9447 11806 11809 28
9448 11806 11810 28
9449 11811 11812 28
9450 11811 11813 28
9451 11811 11814 28
9452 11811 11815 28
9453 11816 11817 28
9454 11816 11818 28
9455 11816 11819 28
9456 11816 11820 28
9457 11821 11822 28
9458 11821 11823 28
9459 11821 11824 28
9460 11821 11825 28
9461 11826 11827 28
9462 11826 11828 28
9463 11826 11829 28
9464 11826 11830 28
9465 11831 11832 28
9466 11831 11833 28
9467 11831 11834 28
9468 11831 11835 28
9469 11836 11837 28
9470 11836 11838 28
9471 11836 11839 28
9472 11836 11840 28
9473 11841 11842 28
9474 11841 11843 28
9475 11841 11844 28
9476 11841 11845 28
9477 11846 11847 28
9478 11846 11848 28
9479 11846 11849 28
9480 11846 11850 28
9481 11851 11852 28
9482 11851 11853 28
9483 11851 11854 28
9484 11851 11855 28
9485 11856 11857 28
9486 11856 11858 28
9487 11856 11859 28
9488 11856 11860 28
9489 11861 11862 28
9490 11861 11863 28
9491 11861 11864 28
9492 11861 11865 28
9493 11866 11867 28
9494 11866 11868 28
9495 11866 11869 28
9496 11866 11870 28
9497 11871 11872 28
9498 11871 11873 28
9499 11871 11874 28
9500 11871 11875 28
9501 11876 11877 28
9502 11876 11878 28
9503 11876 11879 28
9504 11876 11880 28
9505 11881 11882 28
9506 11881 11883 28
9507 11881 11884 28
9508 11881 11885 28
9509 11886 11887 28
9510 11886 11888 28
9511 11886 11889 28
9512 11886 11890 28
9513 11891 11892 28
9514 11891 11893 28
9515 11891 11894 28
9516 11891 11895 28
9517 11896 11897 28
9518 11896 11898 28
9519 11896 11899 28
9520 11896 11900 28
9521 11901 11902 28
9522 11901 11903 28
9523 11901 11904 28
9524 11901 11905 28
9525 11906 11907 28
9526 11906 11908 28
9527 11906 11909 28
9528 11906 11910 28
9529 11911 11912 28
9530 11911 11913 28
9531 11911 11914 28
9532 11911 11915 28
9533 11916 11917 28
9534 11916 11918 28
9535 11916 11919 28
9536 11916 11920 28
9537 11921 11922 28
9538 11921 11923 28
9539 11921 11924 28
9540 11921 11925 28
9541 11926 11927 28
9542 11926 11928 28
9543 11926 11929 28
9544 11926 11930 28
9545 11931 11932 28
9546 11931 11933 28
9547 11931 11934 28
9548 11931 11935 28
9549 11936 11937 28
9550 11936 11938 28
9551 11936 11939 28
9552 11936 11940 28
9553 11941 11942 28
9554 11941 11943 28
9555 11941 11944 28
9556 11941 11945 28
9557 11946 11947 28
9558 11946 11948 28
9559 11946 11949 28
9560 11946 11950 28
9561 11951 11952 28
9562 11951 11953 28
9563 11951 11954 28
9564 11951 11955 28
9565 11956 11957 28
9566 11956 11958 28
9567 11956 11959 28
9568 11956 11960 28
9569 11961 11962 28
9570 11961 11963 28
9571 11961 11964 28
9572 11961 11965 28
9573 11966 11967 28
9574 11966 11968 28
9575 11966 11969 28
9576 11966 11970 28
9577 11971 11972 28
9578 11971 11973 28
9579 11971 11974 28
9580 11971 11975 28
9581 11976 11977 28
9582 11976 11978 28
9583 11976 11979 28
9584 11976 11980 28
9585 11981 11982 28
9586 11981 11983 28
9587 11981 11984 28
9588 11981 11985 28
9589 11986 11987 28
9590 11986 11988 28
9591 11986 11989 28
9592 11986 11990 28
9593 11991 11992 28
9594 11991 11993 28
9595 11991 11994 28
9596 11991 11995 28
9597 11996 11997 28
9598 11996 11998 28
9599 11996 11999 28
9600 11996 12000 28
9601 12001 12002 28
9602 12001 12003 28
9603 12001 12004 28
9604 12001 12005 28
9605 12006 12007 28
9606 12006 12008 28
9607 12006 12009 28
9608 12006 12010 28
9609 12011 12012 28
9610 12011 12013 28
9611 12011 12014 28
9612 12011 12015 28
9613 12016 12017 28
9614 12016 12018 28
9615 12016 12019 28
9616 12016 12020 28
9617 12021 12022 28
9618 12021 12023 28
9619 12021 12024 28
9620 12021 12025 28
9621 12026 12027 28
9622 12026 12028 28
9623 12026 12029 28
9624 12026 12030 28
9625 12031 12032 28
9626 12031 12033 28
9627 12031 12034 28
9628 12031 12035 28
9629 12036 12037 28
9630 12036 12038 28
9631 12036 12039 28
9632 12036 12040 28
9633 12041 12042 28
9634 12041 12043 28
9635 12041 12044 28
9636 12041 12045 28
9637 12046 12047 28
9638 12046 12048 28
9639 12046 12049 28
9640 12046 12050 28
9641 12051 12052 28
9642 12051 12053 28
9643 12051 12054 28
9644 12051 12055 28
9645 12056 12057 28
9646 12056 12058 28
9647 12056 12059 28
9648 12056 12060 28
9649 12061 12062 28
9650 12061 12063 28
9651 12061 12064 28
9652 12061 12065 28
9653 12066 12067 28
9654 12066 12068 28
9655 12066 12069 28
9656 12066 12070 28
9657 12071 12072 28
9658 12071 12073 28
9659 12071 12074 28
9660 12071 12075 28
9661 12076 12077 28
9662 12076 12078 28
9663 12076 12079 28
9664 12076 12080 28
9665 12081 12082 28
9666 12081 12083 28
9667 12081 12084 28
9668 12081 12085 28
9669 12086 12087 28
9670 12086 12088 28
9671 12086 12089 28
9672 12086 12090 28
9673 12091 12092 28
9674 12091 12093 28
9675 12091 12094 28
9676 12091 12095 28
9677 12096 12097 28
9678 12096 12098 28
9679 12096 12099 28
9680 12096 12100 28
9681 12101 12102 28
9682 12101 12103 28
9683 12101 12104 28
9684 12101 12105 28
9685 12106 12107 28
9686 12106 12108 28
9687 12106 12109 28
9688 12106 12110 28
9689 12111 12112 28
9690 12111 12113 28
9691 12111 12114 28
9692 12111 12115 28
9693 12116 12117 28
9694 12116 12118 28
9695 12116 12119 28
9696 12116 12120 28
9697 12121 12122 28
9698 12121 12123 28
9699 12121 12124 28
9700 12121 12125 28
9701 12126 12127 28
9702 12126 12128 28
9703 12126 12129 28
9704 12126 12130 28
9705 12131 12132 28
9706 12131 12133 28
9707 12131 12134 28
9708 12131 12135 28
9709 12136 12137 28
9710 12136 12138 28
9711 12136 12139 28
9712 12136 12140 28
9713 12141 12142 28
9714 12141 12143 28
9715 12141 12144 28
9716 12141 12145 28
9717 12146 12147 28
9718 12146 12148 28
9719 12146 12149 28
9720 12146 12150 28
9721 12151 12152 28
9722 12151 12153 28
9723 12151 12154 28
9724 12151 12155 28
9725 12156 12157 28
9726 12156 12158 28
9727 12156 12159 28
9728 12156 12160 28
9729 12161 12162 28
9730 12161 12163 28
9731 12161 12164 28
9732 12161 12165 28
9733 12166 12167 28
9734 12166 12168 28
9735 12166 12169 28
9736 12166 12170 28
9737 12171 12172 28
9738 12171 12173 28
9739 12171 12174 28
9740 12171 12175 28
9741 12176 12177 28
9742 12176 12178 28
9743 12176 12179 28
9744 12176 12180 28
9745 12181 12182 28
9746 12181 12183 28
9747 12181 12184 28
9748 12181 12185 28
9749 12186 12187 28
9750 12186 12188 28
9751 12186 12189 28
9752 12186 12190 28
9753 12191 12192 28
9754 12191 12193 28
9755 12191 12194 28
9756 12191 12195 28
9757 12196 12197 28
9758 12196 12198 28
9759 12196 12199 28
9760 12196 12200 28
9761 12201 12202 28
9762 12201 12203 28
9763 12201 12204 28
9764 12201 12205 28
9765 12206 12207 28
9766 12206 12208 28
9767 12206 12209 28
9768 12206 12210 28
9769 12211 12212 28
9770 12211 12213 28
9771 12211 12214 28
9772 12211 12215 28
9773 12216 12217 28
9774 12216 12218 28
9775 12216 12219 28
9776 12216 12220 28
9777 12221 12222 28
9778 12221 12223 28
9779 12221 12224 28
9780 12221 12225 28
9781 12226 12227 28
9782 12226 12228 28
9783 12226 12229 28
9784 12226 12230 28
9785 12231 12232 28
9786 12231 12233 28
9787 12231 12234 28
9788 12231 12235 28
9789 12236 12237 28
9790 12236 12238 28
9791 12236 12239 28
9792 12236 12240 28
9793 12241 12242 28
9794 12241 12243 28
9795 12241 12244 28
9796 12241 12245 28
9797 12246 12247 28
9798 12246 12248 28
9799 12246 12249 28
9800 12246 12250 28
9801 12251 12252 28
9802 12251 12253 28
9803 12251 12254 28
9804 12251 12255 28
9805 12256 12257 28
9806 12256 12258 28
9807 12256 12259 28
9808 12256 12260 28
9809 12261 12262 28
9810 12261 12263 28
9811 12261 12264 28
9812 12261 12265 28
9813 12266 12267 28
9814 12266 12268 28
9815 12266 12269 28
9816 12266 12270 28
9817 12271 12272 28
9818 12271 12273 28
9819 12271 12274 28
9820 12271 12275 28
9821 12276 12277 28
9822 12276 12278 28
9823 12276 12279 28
9824 12276 12280 28
9825 12281 12282 28
9826 12281 12283 28
9827 12281 12284 28
9828 12281 12285 28
9829 12286 12287 28
9830 12286 12288 28
9831 12286 12289 28
9832 12286 12290 28
9833 12291 12292 28
9834 12291 12293 28
9835 12291 12294 28
9836 12291 12295 28
9837 12296 12297 28
9838 12296 12298 28
9839 12296 12299 28
9840 12296 12300 28
9841 12301 12302 28
9842 12301 12303 28
9843 12301 12304 28
9844 12301 12305 28
9845 12306 12307 28
9846 12306 12308 28
9847 12306 12309 28
9848 12306 12310 28
9849 12311 12312 28
9850 12311 12313 28
9851 12311 12314 28
9852 12311 12315 28
9853 12316 12317 28
9854 12316 12318 28
9855 12316 12319 28
9856 12316 12320 28
9857 12321 12322 28
9858 12321 12323 28
9859 12321 12324 28
9860 12321 12325 28
9861 12326 12327 28
9862 12326 12328 28
9863 12326 12329 28
9864 12326 12330 28
9865 12331 12332 28
9866 12331 12333 28
9867 12331 12334 28
9868 12331 12335 28
9869 12336 12337 28
9870 12336 12338 28
9871 12336 12339 28
9872 12336 12340 28
9873 12341 12342 28
9874 12341 12343 28
9875 12341 12344 28
9876 12341 12345 28
9877 12346 12347 28
9878 12346 12348 28
9879 12346 12349 28
9880 12346 12350 28
9881 12351 12352 28
9882 12351 12353 28
9883 12351 12354 28
9884 12351 12355 28
9885 12356 12357 28
9886 12356 12358 28
9887 12356 12359 28
9888 12356 12360 28
9889 12361 12362 28
9890 12361 12363 28
9891 12361 12364 28
9892 12361 12365 28
9893 12366 12367 28
9894 12366 12368 28
9895 12366 12369 28
9896 12366 12370 28
9897 12371 12372 28
9898 12371 12373 28
9899 12371 12374 28
9900 12371 12375 28
9901 12376 12377 28
9902 12376 12378 28
9903 12376 12379 28
9904 12376 12380 28
9905 12381 12382 28
9906 12381 12383 28
9907 12381 12384 28
9908 12381 12385 28
9909 12386 12387 28
9910 12386 12388 28
9911 12386 12389 28
9912 12386 12390 28
9913 12391 12392 28
9914 12391 12393 28
9915 12391 12394 28
9916 12391 12395 28
9917 12396 12397 28
9918 12396 12398 28
9919 12396 12399 28
9920 12396 12400 28
9921 12401 12402 28
9922 12401 12403 28
9923 12401 12404 28
9924 12401 12405 28
9925 12406 12407 28
9926 12406 12408 28
9927 12406 12409 28
9928 12406 12410 28
9929 12411 12412 28
9930 12411 12413 28
9931 12411 12414 28
9932 12411 12415 28
9933 12416 12417 28
9934 12416 12418 28
9935 12416 12419 28
9936 12416 12420 28
9937 12421 12422 28
9938 12421 12423 28
9939 12421 12424 28
9940 12421 12425 28
9941 12426 12427 28
9942 12426 12428 28
9943 12426 12429 28
9944 12426 12430 28
9945 12431 12432 28
9946 12431 12433 28
9947 12431 12434 28
9948 12431 12435 28
9949 12436 12437 28
9950 12436 12438 28
9951 12436 12439 28
9952 12436 12440 28
9953 12441 12442 28
9954 12441 12443 28
9955 12441 12444 28
9956 12441 12445 28
9957 12446 12447 28
9958 12446 12448 28
9959 12446 12449 28
9960 12446 12450 28
9961 12451 12452 28
9962 12451 12453 28
9963 12451 12454 28
9964 12451 12455 28
9965 12456 12457 28
9966 12456 12458 28
9967 12456 12459 28
9968 12456 12460 28
9969 12461 12462 28
9970 12461 12463 28
9971 12461 12464 28
9972 12461 12465 28
9973 12466 12467 28
9974 12466 12468 28
9975 12466 12469 28
9976 12466 12470 28
9977 12471 12472 28
9978 12471 12473 28
9979 12471 12474 28
9980 12471 12475 28
9981 12476 12477 28
9982 12476 12478 28
9983 12476 12479 28
9984 12476 12480 28
9985 12481 12482 28
9986 12481 12483 28
9987 12481 12484 28
9988 12481 12485 28
9989 12486 12487 28
9990 12486 12488 28
9991 12486 12489 28
9992 12486 12490 28
9993 12491 12492 28
9994 12491 12493 28
9995 12491 12494 28
9996 12491 12495 28
9997 12496 12497 28
9998 12496 12498 28
9999 12496 12499 28
10000 12496 12500 28
10001 12501 12502 28
10002 12501 12503 28
10003 12501 12504 28
10004 12501 12505 28
10005 12506 12507 28
10006 12506 12508 28
10007 12506 12509 28
10008 12506 12510 28
10009 12511 12512 28
10010 12511 12513 28
10011 12511 12514 28
10012 12511 12515 28
10013 12516 12517 28
10014 12516 12518 28
10015 12516 12519 28
10016 12516 12520 28
10017 12521 12522 28
10018 12521 12523 28
10019 12521 12524 28
10020 12521 12525 28
10021 12526 12527 28
10022 12526 12528 28
10023 12526 12529 28
10024 12526 12530 28
10025 12531 12532 28
10026 12531 12533 28
10027 12531 12534 28
10028 12531 12535 28
10029 12536 12537 28
10030 12536 12538 28
10031 12536 12539 28
10032 12536 12540 28
10033 12541 12542 28
10034 12541 12543 28
10035 12541 12544 28
10036 12541 12545 28
10037 12546 12547 28
10038 12546 12548 28
10039 12546 12549 28
10040 12546 12550 28
10041 12551 12552 28
10042 12551 12553 28
10043 12551 12554 28
10044 12551 12555 28
10045 12556 12557 28
10046 12556 12558 28
10047 12556 12559 28
10048 12556 12560 28
10049 12561 12562 28
10050 12561 12563 28
10051 12561 12564 28
10052 12561 12565 28
10053 12566 12567 28
10054 12566 12568 28
10055 12566 12569 28
10056 12566 12570 28
10057 12571 12572 28
10058 12571 12573 28
10059 12571 12574 28
10060 12571 12575 28
10061 12576 12577 28
10062 12576 12578 28
10063 12576 12579 28
10064 12576 12580 28
10065 12581 12582 28
10066 12581 12583 28
10067 12581 12584 28
10068 12581 12585 28
10069 12586 12587 28
10070 12586 12588 28
10071 12586 12589 28
10072 12586 12590 28
10073 12591 12592 28
10074 12591 12593 28
10075 12591 12594 28
10076 12591 12595 28
10077 12596 12597 28
10078 12596 12598 28
10079 12596 12599 28
10080 12596 12600 28
10081 12601 12602 28
10082 12601 12603 28
10083 12601 12604 28
10084 12601 12605 28
10085 12606 12607 28
10086 12606 12608 28
10087 12606 12609 28
10088 12606 12610 28
10089 12611 12612 28
10090 12611 12613 28
10091 12611 12614 28
10092 12611 12615 28
10093 12616 12617 28
10094 12616 12618 28
10095 12616 12619 28
10096 12616 12620 28
10097 12621 12622 28
10098 12621 12623 28
10099 12621 12624 28
10100 12621 12625 28
10101 12626 12627 28
10102 12626 12628 28
10103 12626 12629 28
10104 12626 12630 28
10105 12631 12632 28
10106 12631 12633 28
10107 12631 12634 28
10108 12631 12635 28
10109 12636 12637 28
10110 12636 12638 28
10111 12636 12639 28
10112 12636 12640 28
10113 12641 12642 28
10114 12641 12643 28
10115 12641 12644 28
10116 12641 12645 28
10117 12646 12647 28
10118 12646 12648 28
10119 12646 12649 28
10120 12646 12650 28
10121 12651 12652 28
10122 12651 12653 28
10123 12651 12654 28
10124 12651 12655 28
10125 12656 12657 28
10126 12656 12658 28
10127 12656 12659 28
10128 12656 12660 28
10129 12661 12662 28
10130 12661 12663 28
10131 12661 12664 28
10132 12661 12665 28
10133 12666 12667 28
10134 12666 12668 28
10135 12666 12669 28
10136 12666 12670 28
10137 12671 12672 28
10138 12671 12673 28
10139 12671 12674 28
10140 12671 12675 28
10141 12676 12677 28
10142 12676 12678 28
10143 12676 12679 28
10144 12676 12680 28
10145 12681 12682 28
10146 12681 12683 28
10147 12681 12684 28
10148 12681 12685 28
10149 12686 12687 28
10150 12686 12688 28
10151 12686 12689 28
10152 12686 12690 28
10153 12691 12692 28
10154 12691 12693 28
10155 12691 12694 28
10156 12691 12695 28
10157 12696 12697 28
10158 12696 12698 28
10159 12696 12699 28
10160 12696 12700 28
10161 12701 12702 28
10162 12701 12703 28
10163 12701 12704 28
10164 12701 12705 28
10165 12706 12707 28
10166 12706 12708 28
10167 12706 12709 28
10168 12706 12710 28
10169 12711 12712 28
10170 12711 12713 28
10171 12711 12714 28
10172 12711 12715 28
10173 12716 12717 28
10174 12716 12718 28
10175 12716 12719 28
10176 12716 12720 28
10177 12721 12722 28
10178 12721 12723 28
10179 12721 12724 28
10180 12721 12725 28
10181 12726 12727 28
10182 12726 12728 28
10183 12726 12729 28
10184 12726 12730 28
10185 12731 12732 28
10186 12731 12733 28
10187 12731 12734 28
10188 12731 12735 28
10189 12736 12737 28
10190 12736 12738 28
10191 12736 12739 28
10192 12736 12740 28
10193 12741 12742 28
10194 12741 12743 28
10195 12741 12744 28
10196 12741 12745 28
10197 12746 12747 28
10198 12746 12748 28
10199 12746 12749 28
10200 12746 12750 28
10201 12751 12752 28
10202 12751 12753 28
10203 12751 12754 28
10204 12751 12755 28
10205 12756 12757 28
10206 12756 12758 28
10207 12756 12759 28
10208 12756 12760 28
10209 12761 12762 28
10210 12761 12763 28
10211 12761 12764 28
10212 12761 12765 28
10213 12766 12767 28
10214 12766 12768 28
10215 12766 12769 28
10216 12766 12770 28
10217 12771 12772 28
10218 12771 12773 28
10219 12771 12774 28
10220 12771 12775 28
10221 12776 12777 28
10222 12776 12778 28
10223 12776 12779 28
10224 12776 12780 28
10225 12781 12782 28
10226 12781 12783 28
10227 12781 12784 28
10228 12781 12785 28
10229 12786 12787 28
10230 12786 12788 28
10231 12786 12789 28
10232 12786 12790 28
10233 12791 12792 28
10234 12791 12793 28
10235 12791 12794 28
10236 12791 12795 28
10237 12796 12797 28
10238 12796 12798 28
10239 12796 12799 28
10240 12796 12800 28
10241 12801 12802 28
10242 12801 12803 28
10243 12801 12804 28
10244 12801 12805 28
10245 12806 12807 28
10246 12806 12808 28
10247 12806 12809 28
10248 12806 12810 28
10249 12811 12812 28
10250 12811 12813 28
10251 12811 12814 28
10252 12811 12815 28
10253 12816 12817 28
10254 12816 12818 28
10255 12816 12819 28
10256 12816 12820 28
10257 12821 12822 28
10258 12821 12823 28
10259 12821 12824 28
10260 12821 12825 28
10261 12826 12827 28
10262 12826 12828 28
10263 12826 12829 28
10264 12826 12830 28
10265 12831 12832 28
10266 12831 12833 28
10267 12831 12834 28
10268 12831 12835 28
10269 12836 12837 28
10270 12836 12838 28
10271 12836 12839 28
10272 12836 12840 28
10273 12841 12842 28
10274 12841 12843 28
10275 12841 12844 28
10276 12841 12845 28
10277 12846 12847 28
10278 12846 12848 28
10279 12846 12849 28
10280 12846 12850 28
10281 12851 12852 28
10282 12851 12853 28
10283 12851 12854 28
10284 12851 12855 28
10285 12856 12857 28
10286 12856 12858 28
10287 12856 12859 28
10288 12856 12860 28
10289 12861 12862 28
10290 12861 12863 28
10291 12861 12864 28
10292 12861 12865 28
10293 12866 12867 28
10294 12866 12868 28
10295 12866 12869 28
10296 12866 12870 28
10297 12871 12872 28
10298 12871 12873 28
10299 12871 12874 28
10300 12871 12875 28
10301 12876 12877 28
10302 12876 12878 28
10303 12876 12879 28
10304 12876 12880 28
10305 12881 12882 28
10306 12881 12883 28
10307 12881 12884 28
10308 12881 12885 28
10309 12886 12887 28
10310 12886 12888 28
10311 12886 12889 28
10312 12886 12890 28
10313 12891 12892 28
10314 12891 12893 28
10315 12891 12894 28
10316 12891 12895 28
10317 12896 12897 28
10318 12896 12898 28
10319 12896 12899 28
10320 12896 12900 28
10321 12901 12902 28
10322 12901 12903 28
10323 12901 12904 28
10324 12901 12905 28
10325 12906 12907 28
10326 12906 12908 28
10327 12906 12909 28
10328 12906 12910 28
10329 12911 12912 28
10330 12911 12913 28
10331 12911 12914 28
10332 12911 12915 28
10333 12916 12917 28
10334 12916 12918 28
10335 12916 12919 28
10336 12916 12920 28
10337 12921 12922 28
10338 12921 12923 28
10339 12921 12924 28
10340 12921 12925 28
10341 12926 12927 28
10342 12926 12928 28
10343 12926 12929 28
10344 12926 12930 28
10345 12931 12932 28
10346 12931 12933 28
10347 12931 12934 28
10348 12931 12935 28
10349 12936 12937 28
10350 12936 12938 28
10351 12936 12939 28
10352 12936 12940 28
10353 12941 12942 28
10354 12941 12943 28
10355 12941 12944 28
10356 12941 12945 28
10357 12946 12947 28
10358 12946 12948 28
10359 12946 12949 28
10360 12946 12950 28
10361 12951 12952 28
10362 12951 12953 28
10363 12951 12954 28
10364 12951 12955 28
10365 12956 12957 28
10366 12956 12958 28
10367 12956 12959 28
10368 12956 12960 28
10369 12961 12962 28
10370 12961 12963 28
10371 12961 12964 28
10372 12961 12965 28
10373 12966 12967 28
10374 12966 12968 28
10375 12966 12969 28
10376 12966 12970 28
10377 12971 12972 28
10378 12971 12973 28
10379 12971 12974 28
10380 12971 12975 28
10381 12976 12977 28
10382 12976 12978 28
10383 12976 12979 28
10384 12976 12980 28
10385 12981 12982 28
10386 12981 12983 28
10387 12981 12984 28
10388 12981 12985 28
10389 12986 12987 28
10390 12986 12988 28
10391 12986 12989 28
10392 12986 12990 28
10393 12991 12992 28
10394 12991 12993 28
10395 12991 12994 28
10396 12991 12995 28
10397 12996 12997 28
10398 12996 12998 28
10399 12996 12999 28
10400 12996 13000 28
10401 13001 13002 28
10402 13001 13003 28
10403 13001 13004 28
10404 13001 13005 28
10405 13006 13007 28
10406 13006 13008 28
10407 13006 13009 28
10408 13006 13010 28
10409 13011 13012 28
10410 13011 13013 28
10411 13011 13014 28
10412 13011 13015 28
10413 13016 13017 28
10414 13016 13018 28
10415 13016 13019 28
10416 13016 13020 28
10417 13021 13022 28
10418 13021 13023 28
10419 13021 13024 28
10420 13021 13025 28
10421 13026 13027 28
10422 13026 13028 28
10423 13026 13029 28
10424 13026 13030 28
10425 13031 13032 28
10426 13031 13033 28
10427 13031 13034 28
10428 13031 13035 28
10429 13036 13037 28
10430 13036 13038 28
10431 13036 13039 28
10432 13036 13040 28
10433 13041 13042 28
10434 13041 13043 28
10435 13041 13044 28
10436 13041 13045 28
10437 13046 13047 28
10438 13046 13048 28
10439 13046 13049 28
10440 13046 13050 28
10441 13051 13052 28
10442 13051 13053 28
10443 13051 13054 28
10444 13051 13055 28
10445 13056 13057 28
10446 13056 13058 28
10447 13056 13059 28
10448 13056 13060 28
10449 13061 13062 28
10450 13061 13063 28
10451 13061 13064 28
10452 13061 13065 28
10453 13066 13067 28
10454 13066 13068 28
10455 13066 13069 28
10456 13066 13070 28
10457 13071 13072 28
10458 13071 13073 28
10459 13071 13074 28
10460 13071 13075 28
10461 13076 13077 28
10462 13076 13078 28
10463 13076 13079 28
10464 13076 13080 28
10465 13081 13082 28
10466 13081 13083 28
10467 13081 13084 28
10468 13081 13085 28
10469 13086 13087 28
10470 13086 13088 28
10471 13086 13089 28
10472 13086 13090 28
10473 13091 13092 28
10474 13091 13093 28
10475 13091 13094 28
10476 13091 13095 28
10477 13096 13097 28
10478 13096 13098 28
10479 13096 13099 28
10480 13096 13100 28
10481 13101 13102 28
10482 13101 13103 28
10483 13101 13104 28
10484 13101 13105 28
10485 13106 13107 28
10486 13106 13108 28
10487 13106 13109 28
10488 13106 13110 28
10489 13111 13112 28
10490 13111 13113 28
10491 13111 13114 28
10492 13111 13115 28
10493 13116 13117 28
10494 13116 13118 28
10495 13116 13119 28
10496 13116 13120 28
10497 13121 13122 28
10498 13121 13123 28
10499 13121 13124 28
10500 13121 13125 28
10501 13126 13127 28
10502 13126 13128 28
10503 13126 13129 28
10504 13126 13130 28
10505 13131 13132 28
10506 13131 13133 28
10507 13131 13134 28
10508 13131 13135 28
10509 13136 13137 28
10510 13136 13138 28
10511 13136 13139 28
10512 13136 13140 28
10513 13141 13142 28
10514 13141 13143 28
10515 13141 13144 28
10516 13141 13145 28
10517 13146 13147 28
10518 13146 13148 28
10519 13146 13149 28
10520 13146 13150 28
10521 13151 13152 28
10522 13151 13153 28
10523 13151 13154 28
10524 13151 13155 28
10525 13156 13157 28
10526 13156 13158 28
10527 13156 13159 28
10528 13156 13160 28
10529 13161 13162 28
10530 13161 13163 28
10531 13161 13164 28
10532 13161 13165 28
10533 13166 13167 28
10534 13166 13168 28
10535 13166 13169 28
10536 13166 13170 28
10537 13171 13172 28
10538 13171 13173 28
10539 13171 13174 28
10540 13171 13175 28
10541 13176 13177 28
10542 13176 13178 28
10543 13176 13179 28
10544 13176 13180 28
10545 13181 13182 28
10546 13181 13183 28
10547 13181 13184 28
10548 13181 13185 28
10549 13186 13187 28
10550 13186 13188 28
10551 13186 13189 28
10552 13186 13190 28
10553 13191 13192 28
10554 13191 13193 28
10555 13191 13194 28
10556 13191 13195 28
10557 13196 13197 28
10558 13196 13198 28
10559 13196 13199 28
10560 13196 13200 28
10561 13201 13202 28
10562 13201 13203 28
10563 13201 13204 28
10564 13201 13205 28
10565 13206 13207 28
10566 13206 13208 28
10567 13206 13209 28
10568 13206 13210 28
10569 13211 13212 28
10570 13211 13213 28
10571 13211 13214 28
10572 13211 13215 28
10573 13216 13217 28
10574 13216 13218 28
10575 13216 13219 28
10576 13216 13220 28
10577 13221 13222 28
10578 13221 13223 28
10579 13221 13224 28
10580 13221 13225 28
10581 13226 13227 28
10582 13226 13228 28
10583 13226 13229 28
10584 13226 13230 28
10585 13231 13232 28
10586 13231 13233 28
10587 13231 13234 28
10588 13231 13235 28
10589 13236 13237 28
10590 13236 13238 28
10591 13236 13239 28
10592 13236 13240 28
10593 13241 13242 28
10594 13241 13243 28
10595 13241 13244 28
10596 13241 13245 28
10597 13246 13247 28
10598 13246 13248 28
10599 13246 13249 28
10600 13246 13250 28
10601 13251 13252 28
10602 13251 13253 28
10603 13251 13254 28
10604 13251 13255 28
10605 13256 13257 28
10606 13256 13258 28
10607 13256 13259 28
10608 13256 13260 28
10609 13261 13262 28
10610 13261 13263 28
10611 13261 13264 28
10612 13261 13265 28
10613 13266 13267 28
10614 13266 13268 28
10615 13266 13269 28
10616 13266 13270 28
10617 13271 13272 28
10618 13271 13273 28
10619 13271 13274 28
10620 13271 13275 28
10621 13276 13277 28
10622 13276 13278 28
10623 13276 13279 28
10624 13276 13280 28
10625 13281 13282 28
10626 13281 13283 28
10627 13281 13284 28
10628 13281 13285 28
10629 13286 13287 28
10630 13286 13288 28
10631 13286 13289 28
10632 13286 13290 28
10633 13291 13292 28
10634 13291 13293 28
10635 13291 13294 28
10636 13291 13295 28
10637 13296 13297 28
10638 13296 13298 28
10639 13296 13299 28
10640 13296 13300 28
10641 13301 13302 28
10642 13301 13303 28
10643 13301 13304 28
10644 13301 13305 28
10645 13306 13307 28
10646 13306 13308 28
10647 13306 13309 28
10648 13306 13310 28
10649 13311 13312 28
10650 13311 13313 28
10651 13311 13314 28
10652 13311 13315 28
10653 13316 13317 28
10654 13316 13318 28
10655 13316 13319 28
10656 13316 13320 28
10657 13321 13322 28
10658 13321 13323 28
10659 13321 13324 28
10660 13321 13325 28
10661 13326 13327 28
10662 13326 13328 28
10663 13326 13329 28
10664 13326 13330 28
10665 13331 13332 28
10666 13331 13333 28
10667 13331 13334 28
10668 13331 13335 28
10669 13336 13337 28
10670 13336 13338 28
10671 13336 13339 28
10672 13336 13340 28
10673 13341 13342 28
10674 13341 13343 28
10675 13341 13344 28
10676 13341 13345 28
10677 13346 13347 28
10678 13346 13348 28
10679 13346 13349 28
10680 13346 13350 28
10681 13351 13352 28
10682 13351 13353 28
10683 13351 13354 28
10684 13351 13355 28
10685 13356 13357 28
10686 13356 13358 28
10687 13356 13359 28
10688 13356 13360 28
10689 13361 13362 28
10690 13361 13363 28
10691 13361 13364 28
10692 13361 13365 28
10693 13366 13367 28
10694 13366 13368 28
10695 13366 13369 28
10696 13366 13370 28
10697 13371 13372 28
10698 13371 13373 28
10699 13371 13374 28
10700 13371 13375 28
10701 13376 13377 28
10702 13376 13378 28
10703 13376 13379 28
10704 13376 13380 28
10705 13381 13382 28
10706 13381 13383 28
10707 13381 13384 28
10708 13381 13385 28
10709 13386 13387 28
10710 13386 13388 28
10711 13386 13389 28
10712 13386 13390 28
10713 13391 13392 28
10714 13391 13393 28
10715 13391 13394 28
10716 13391 13395 28
10717 13396 13397 28
10718 13396 13398 28
10719 13396 13399 28
10720 13396 13400 28
10721 13401 13402 28
10722 13401 13403 28
10723 13401 13404 28
10724 13401 13405 28
10725 13406 13407 28
10726 13406 13408 28
10727 13406 13409 28
10728 13406 13410 28
10729 13411 13412 28
10730 13411 13413 28
10731 13411 13414 28
10732 13411 13415 28
10733 13416 13417 28
10734 13416 13418 28
10735 13416 13419 28
10736 13416 13420 28
10737 13421 13422 28
10738 13421 13423 28
10739 13421 13424 28
10740 13421 13425 28
10741 13426 13427 28
10742 13426 13428 28
10743 13426 13429 28
10744 13426 13430 28
10745 13431 13432 28
10746 13431 13433 28
10747 13431 13434 28
10748 13431 13435 28
10749 13436 13437 28
10750 13436 13438 28
10751 13436 13439 28
10752 13436 13440 28
10753 13441 13442 28
10754 13441 13443 28
10755 13441 13444 28
10756 13441 13445 28
10757 13446 13447 28
10758 13446 13448 28
10759 13446 13449 28
10760 13446 13450 28
10761 13451 13452 28
10762 13451 13453 28
10763 13451 13454 28
10764 13451 13455 28
10765 13456 13457 28
10766 13456 13458 28
10767 13456 13459 28
10768 13456 13460 28
10769 13461 13462 28
10770 13461 13463 28
10771 13461 13464 28
10772 13461 13465 28
10773 13466 13467 28
10774 13466 13468 28
10775 13466 13469 28
10776 13466 13470 28
10777 13471 13472 28
10778 13471 13473 28
10779 13471 13474 28
10780 13471 13475 28
10781 13476 13477 28
10782 13476 13478 28
10783 13476 13479 28
10784 13476 13480 28
10785 13481 13482 28
10786 13481 13483 28
10787 13481 13484 28
10788 13481 13485 28
10789 13486 13487 28
10790 13486 13488 28
10791 13486 13489 28
10792 13486 13490 28
10793 13491 13492 28
10794 13491 13493 28
10795 13491 13494 28
10796 13491 13495 28
10797 13496 13497 28
10798 13496 13498 28
10799 13496 13499 28
10800 13496 13500 28
10801 13501 13502 28
10802 13501 13503 28
10803 13501 13504 28
10804 13501 13505 28
10805 13506 13507 28
10806 13506 13508 28
10807 13506 13509 28
10808 13506 13510 28
10809 13511 13512 28
10810 13511 13513 28
10811 13511 13514 28
10812 13511 13515 28
10813 13516 13517 28
10814 13516 13518 28
10815 13516 13519 28
10816 13516 13520 28
10817 13521 13522 28
10818 13521 13523 28
10819 13521 13524 28
10820 13521 13525 28
10821 13526 13527 28
10822 13526 13528 28
10823 13526 13529 28
10824 13526 13530 28
10825 13531 13532 28
10826 13531 13533 28
10827 13531 13534 28
10828 13531 13535 28
10829 13536 13537 28
10830 13536 13538 28
10831 13536 13539 28
10832 13536 13540 28
10833 13541 13542 28
10834 13541 13543 28
10835 13541 13544 28
10836 13541 13545 28
10837 13546 13547 28
10838 13546 13548 28
10839 13546 13549 28
10840 13546 13550 28
10841 13551 13552 28
10842 13551 13553 28
10843 13551 13554 28
10844 13551 13555 28
10845 13556 13557 28
10846 13556 13558 28
10847 13556 13559 28
10848 13556 13560 28
10849 13561 13562 28
10850 13561 13563 28
10851 13561 13564 28
10852 13561 13565 28
10853 13566 13567 28
10854 13566 13568 28
10855 13566 13569 28
10856 13566 13570 28
10857 13571 13572 28
10858 13571 13573 28
10859 13571 13574 28
10860 13571 13575 28
10861 13576 13577 28
10862 13576 13578 28
10863 13576 13579 28
10864 13576 13580 28
10865 13581 13582 28
10866 13581 13583 28
10867 13581 13584 28
10868 13581 13585 28
10869 13586 13587 28
10870 13586 13588 28
10871 13586 13589 28
10872 13586 13590 28
10873 13591 13592 28
10874 13591 13593 28
10875 13591 13594 28
10876 13591 13595 28
10877 13596 13597 28
10878 13596 13598 28
10879 13596 13599 28
10880 13596 13600 28
10881 13601 13602 28
10882 13601 13603 28
10883 13601 13604 28
10884 13601 13605 28
10885 13606 13607 28
10886 13606 13608 28
10887 13606 13609 28
10888 13606 13610 28
10889 13611 13612 28
10890 13611 13613 28
10891 13611 13614 28
10892 13611 13615 28
10893 13616 13617 28
10894 13616 13618 28
10895 13616 13619 28
10896 13616 13620 28
10897 13621 13622 28
10898 13621 13623 28
10899 13621 13624 28
10900 13621 13625 28
10901 13626 13627 28
10902 13626 13628 28
10903 13626 13629 28
10904 13626 13630 28
10905 13631 13632 28
10906 13631 13633 28
10907 13631 13634 28
10908 13631 13635 28
10909 13636 13637 28
10910 13636 13638 28
10911 13636 13639 28
10912 13636 13640 28
10913 13641 13642 28
10914 13641 13643 28
10915 13641 13644 28
10916 13641 13645 28
10917 13646 13647 28
10918 13646 13648 28
10919 13646 13649 28
10920 13646 13650 28
10921 13651 13652 28
10922 13651 13653 28
10923 13651 13654 28
10924 13651 13655 28
10925 13656 13657 28
10926 13656 13658 28
10927 13656 13659 28
10928 13656 13660 28
10929 13661 13662 28
10930 13661 13663 28
10931 13661 13664 28
10932 13661 13665 28
10933 13666 13667 28
10934 13666 13668 28
10935 13666 13669 28
10936 13666 13670 28
10937 13671 13672 28
10938 13671 13673 28
10939 13671 13674 28
10940 13671 13675 28
10941 13676 13677 28
10942 13676 13678 28
10943 13676 13679 28
10944 13676 13680 28
10945 13681 13682 28
10946 13681 13683 28
10947 13681 13684 28
10948 13681 13685 28
10949 13686 13687 28
10950 13686 13688 28
10951 13686 13689 28
10952 13686 13690 28
10953 13691 13692 28
10954 13691 13693 28
10955 13691 13694 28
10956 13691 13695 28
10957 13696 13697 28
10958 13696 13698 28
10959 13696 13699 28
10960 13696 13700 28
10961 13701 13702 28
10962 13701 13703 28
10963 13701 13704 28
10964 13701 13705 28
10965 13706 13707 28
10966 13706 13708 28
10967 13706 13709 28
10968 13706 13710 28
10969 13711 13712 28
10970 13711 13713 28
10971 13711 13714 28
10972 13711 13715 28
10973 13716 13717 28
10974 13716 13718 28
10975 13716 13719 28
10976 13716 13720 28
10977 13721 13722 28
10978 13721 13723 28
10979 13721 13724 28
10980 13721 13725 28
10981 13726 13727 28
10982 13726 13728 28
10983 13726 13729 28
10984 13726 13730 28
10985 13731 13732 28
10986 13731 13733 28
10987 13731 13734 28
10988 13731 13735 28
10989 13736 13737 28
10990 13736 13738 28
10991 13736 13739 28
10992 13736 13740 28
10993 13741 13742 28
10994 13741 13743 28
10995 13741 13744 28
10996 13741 13745 28
10997 13746 13747 28
10998 13746 13748 28
10999 13746 13749 28
11000 13746 13750 28
11001 13751 13752 28
11002 13751 13753 28
11003 13751 13754 28
11004 13751 13755 28
11005 13756 13757 28
11006 13756 13758 28
11007 13756 13759 28
11008 13756 13760 28
11009 13761 13762 28
11010 13761 13763 28
11011 13761 13764 28
11012 13761 13765 28
11013 13766 13767 28
11014 13766 13768 28
11015 13766 13769 28
11016 13766 13770 28
11017 13771 13772 28
11018 13771 13773 28
11019 13771 13774 28
11020 13771 13775 28
11021 13776 13777 28
11022 13776 13778 28
11023 13776 13779 28
11024 13776 13780 28
11025 13781 13782 28
11026 13781 13783 28
11027 13781 13784 28
11028 13781 13785 28
11029 13786 13787 28
11030 13786 13788 28
11031 13786 13789 28
11032 13786 13790 28
11033 13791 13792 28
11034 13791 13793 28
11035 13791 13794 28
11036 13791 13795 28
11037 13796 13797 28
11038 13796 13798 28
11039 13796 13799 28
11040 13796 13800 28
11041 13801 13802 28
11042 13801 13803 28
11043 13801 13804 28
11044 13801 13805 28
11045 13806 13807 28
11046 13806 13808 28
11047 13806 13809 28
11048 13806 13810 28
11049 13811 13812 28
11050 13811 13813 28
11051 13811 13814 28
11052 13811 13815 28
11053 13816 13817 28
11054 13816 13818 28
11055 13816 13819 28
11056 13816 13820 28
11057 13821 13822 28
11058 13821 13823 28
11059 13821 13824 28
11060 13821 13825 28
11061 13826 13827 28
11062 13826 13828 28
11063 13826 13829 28
11064 13826 13830 28
11065 13831 13832 28
11066 13831 13833 28
11067 13831 13834 28
11068 13831 13835 28
11069 13836 13837 28
11070 13836 13838 28
11071 13836 13839 28
11072 13836 13840 28
11073 13841 13842 28
11074 13841 13843 28
11075 13841 13844 28
11076 13841 13845 28
11077 13846 13847 28
11078 13846 13848 28
11079 13846 13849 28
11080 13846 13850 28
11081 13851 13852 28
11082 13851 13853 28
11083 13851 13854 28
11084 13851 13855 28
11085 13856 13857 28
11086 13856 13858 28
11087 13856 13859 28
11088 13856 13860 28
11089 13861 13862 28
11090 13861 13863 28
11091 13861 13864 28
11092 13861 13865 28
11093 13866 13867 28
11094 13866 13868 28
11095 13866 13869 28
11096 13866 13870 28
11097 13871 13872 28
11098 13871 13873 28
11099 13871 13874 28
11100 13871 13875 28
11101 13876 13877 28
11102 13876 13878 28
11103 13876 13879 28
11104 13876 13880 28
11105 13881 13882 28
11106 13881 13883 28
11107 13881 13884 28
11108 13881 13885 28
11109 13886 13887 28
11110 13886 13888 28
11111 13886 13889 28
11112 13886 13890 28
11113 13891 13892 28
11114 13891 13893 28
11115 13891 13894 28
11116 13891 13895 28
11117 13896 13897 28
11118 13896 13898 28
11119 13896 13899 28
11120 13896 13900 28
11121 13901 13902 28
11122 13901 13903 28
11123 13901 13904 28
11124 13901 13905 28
11125 13906 13907 28
11126 13906 13908 28
11127 13906 13909 28
11128 13906 13910 28
11129 13911 13912 28
11130 13911 13913 28
11131 13911 13914 28
11132 13911 13915 28
11133 13916 13917 28
11134 13916 13918 28
11135 13916 13919 28
11136 13916 13920 28
11137 13921 13922 28
11138 13921 13923 28
11139 13921 13924 28
11140 13921 13925 28
11141 13926 13927 28
11142 13926 13928 28
11143 13926 13929 28
11144 13926 13930 28
11145 13931 13932 28
11146 13931 13933 28
11147 13931 13934 28
11148 13931 13935 28
11149 13936 13937 28
11150 13936 13938 28
11151 13936 13939 28
11152 13936 13940 28
11153 13941 13942 28
11154 13941 13943 28
11155 13941 13944 28
11156 13941 13945 28
11157 13946 13947 28
11158 13946 13948 28
11159 13946 13949 28
11160 13946 13950 28
11161 13951 13952 28
11162 13951 13953 28
11163 13951 13954 28
11164 13951 13955 28
11165 13956 13957 28
11166 13956 13958 28
11167 13956 13959 28
11168 13956 13960 28
11169 13961 13962 28
11170 13961 13963 28
11171 13961 13964 28
11172 13961 13965 28
11173 13966 13967 28
11174 13966 13968 28
11175 13966 13969 28
11176 13966 13970 28
11177 13971 13972 28
11178 13971 13973 28
11179 13971 13974 28
11180 13971 13975 28
11181 13976 13977 28
11182 13976 13978 28
11183 13976 13979 28
11184 13976 13980 28
11185 13981 13982 28
11186 13981 13983 28
11187 13981 13984 28
11188 13981 13985 28
11189 13986 13987 28
11190 13986 13988 28
11191 13986 13989 28
11192 13986 13990 28
11193 13991 13992 28
11194 13991 13993 28
11195 13991 13994 28
11196 13991 13995 28
11197 13996 13997 28
11198 13996 13998 28
11199 13996 13999 28
11200 13996 14000 28
11201 14001 14002 28
11202 14001 14003 28
11203 14001 14004 28
11204 14001 14005 28
11205 14006 14007 28
11206 14006 14008 28
11207 14006 14009 28
11208 14006 14010 28
11209 14011 14012 28
11210 14011 14013 28
11211 14011 14014 28
11212 14011 14015 28
11213 14016 14017 28
11214 14016 14018 28
11215 14016 14019 28
11216 14016 14020 28
11217 14021 14022 28
11218 14021 14023 28
11219 14021 14024 28
11220 14021 14025 28
11221 14026 14027 28
11222 14026 14028 28
11223 14026 14029 28
11224 14026 14030 28
11225 14031 14032 28
11226 14031 14033 28
11227 14031 14034 28
11228 14031 14035 28
11229 14036 14037 28
11230 14036 14038 28
11231 14036 14039 28
11232 14036 14040 28
11233 14041 14042 28
11234 14041 14043 28
11235 14041 14044 28
11236 14041 14045 28
11237 14046 14047 28
11238 14046 14048 28
11239 14046 14049 28
11240 14046 14050 28
11241 14051 14052 28
11242 14051 14053 28
11243 14051 14054 28
11244 14051 14055 28
11245 14056 14057 28
11246 14056 14058 28
11247 14056 14059 28
11248 14056 14060 28
11249 14061 14062 28
11250 14061 14063 28
11251 14061 14064 28
11252 14061 14065 28
11253 14066 14067 28
11254 14066 14068 28
11255 14066 14069 28
11256 14066 14070 28
11257 14071 14072 28
11258 14071 14073 28
11259 14071 14074 28
11260 14071 14075 28
11261 14076 14077 28
11262 14076 14078 28
11263 14076 14079 28
11264 14076 14080 28
11265 14081 14082 28
11266 14081 14083 28
11267 14081 14084 28
11268 14081 14085 28
11269 14086 14087 28
11270 14086 14088 28
11271 14086 14089 28
11272 14086 14090 28
11273 14091 14092 28
11274 14091 14093 28
11275 14091 14094 28
11276 14091 14095 28
11277 14096 14097 28
11278 14096 14098 28
11279 14096 14099 28
11280 14096 14100 28
11281 14101 14102 28
11282 14101 14103 28
11283 14101 14104 28
11284 14101 14105 28
11285 14106 14107 28
11286 14106 14108 28
11287 14106 14109 28
11288 14106 14110 28
11289 14111 14112 28
11290 14111 14113 28
11291 14111 14114 28
11292 14111 14115 28
11293 14116 14117 28
11294 14116 14118 28
11295 14116 14119 28
11296 14116 14120 28
11297 14121 14122 28
11298 14121 14123 28
11299 14121 14124 28
11300 14121 14125 28
11301 14126 14127 28
11302 14126 14128 28
11303 14126 14129 28
11304 14126 14130 28
11305 14131 14132 28
11306 14131 14133 28
11307 14131 14134 28
11308 14131 14135 28
11309 14136 14137 28
11310 14136 14138 28
11311 14136 14139 28
11312 14136 14140 28
11313 14141 14142 28
11314 14141 14143 28
11315 14141 14144 28
11316 14141 14145 28
11317 14146 14147 28
11318 14146 14148 28
11319 14146 14149 28
11320 14146 14150 28
11321 14151 14152 28
11322 14151 14153 28
11323 14151 14154 28
11324 14151 14155 28
11325 14156 14157 28
11326 14156 14158 28
11327 14156 14159 28
11328 14156 14160 28
11329 14161 14162 28
11330 14161 14163 28
11331 14161 14164 28
11332 14161 14165 28
11333 14166 14167 28
11334 14166 14168 28
11335 14166 14169 28
11336 14166 14170 28
11337 14171 14172 28
11338 14171 14173 28
11339 14171 14174 28
11340 14171 14175 28
11341 14176 14177 28
11342 14176 14178 28
11343 14176 14179 28
11344 14176 14180 28
11345 14181 14182 28
11346 14181 14183 28
11347 14181 14184 28
11348 14181 14185 28
11349 14186 14187 28
11350 14186 14188 28
11351 14186 14189 28
11352 14186 14190 28
11353 14191 14192 28
11354 14191 14193 28
11355 14191 14194 28
11356 14191 14195 28
11357 14196 14197 28
11358 14196 14198 28
11359 14196 14199 28
11360 14196 14200 28
11361 14201 14202 28
11362 14201 14203 28
11363 14201 14204 28
11364 14201 14205 28
11365 14206 14207 28
11366 14206 14208 28
11367 14206 14209 28
11368 14206 14210 28
11369 14211 14212 28
11370 14211 14213 28
11371 14211 14214 28
11372 14211 14215 28
11373 14216 14217 28
11374 14216 14218 28
11375 14216 14219 28
11376 14216 14220 28
11377 14221 14222 28
11378 14221 14223 28
11379 14221 14224 28
11380 14221 14225 28
11381 14226 14227 28
11382 14226 14228 28
11383 14226 14229 28
11384 14226 14230 28
11385 14231 14232 28
11386 14231 14233 28
11387 14231 14234 28
11388 14231 14235 28
11389 14236 14237 28
11390 14236 14238 28
11391 14236 14239 28
11392 14236 14240 28
11393 14241 14242 28
11394 14241 14243 28
11395 14241 14244 28
11396 14241 14245 28
11397 14246 14247 28
11398 14246 14248 28
11399 14246 14249 28
11400 14246 14250 28
11401 14251 14252 28
11402 14251 14253 28
11403 14251 14254 28
11404 14251 14255 28
11405 14256 14257 28
11406 14256 14258 28
11407 14256 14259 28
11408 14256 14260 28
11409 14261 14262 28
11410 14261 14263 28
11411 14261 14264 28
11412 14261 14265 28
11413 14266 14267 28
11414 14266 14268 28
11415 14266 14269 28
11416 14266 14270 28
11417 14271 14272 28
11418 14271 14273 28
11419 14271 14274 28
11420 14271 14275 28
11421 14276 14277 28
11422 14276 14278 28
11423 14276 14279 28
11424 14276 14280 28
11425 14281 14282 28
11426 14281 14283 28
11427 14281 14284 28
11428 14281 14285 28
11429 14286 14287 28
11430 14286 14288 28
11431 14286 14289 28
11432 14286 14290 28
11433 14291 14292 28
11434 14291 14293 28
11435 14291 14294 28
11436 14291 14295 28
11437 14296 14297 28
11438 14296 14298 28
11439 14296 14299 28
11440 14296 14300 28
11441 14301 14302 28
11442 14301 14303 28
11443 14301 14304 28
11444 14301 14305 28
11445 14306 14307 28
11446 14306 14308 28
11447 14306 14309 28
11448 14306 14310 28
11449 14311 14312 28
11450 14311 14313 28
11451 14311 14314 28
11452 14311 14315 28
11453 14316 14317 28
11454 14316 14318 28
11455 14316 14319 28
11456 14316 14320 28
11457 14321 14322 28
11458 14321 14323 28
11459 14321 14324 28
11460 14321 14325 28
11461 14326 14327 28
11462 14326 14328 28
11463 14326 14329 28
11464 14326 14330 28
11465 14331 14332 28
11466 14331 14333 28
11467 14331 14334 28
11468 14331 14335 28
11469 14336 14337 28
11470 14336 14338 28
11471 14336 14339 28
11472 14336 14340 28
11473 14341 14342 28
11474 14341 14343 28
11475 14341 14344 28
11476 14341 14345 28
11477 14346 14347 28
11478 14346 14348 28
11479 14346 14349 28
11480 14346 14350 28
11481 14351 14352 28
11482 14351 14353 28
11483 14351 14354 28
11484 14351 14355 28
11485 14356 14357 28
11486 14356 14358 28
11487 14356 14359 28
11488 14356 14360 28
11489 14361 14362 28
11490 14361 14363 28
11491 14361 14364 28
11492 14361 14365 28
11493 14366 14367 28
11494 14366 14368 28
11495 14366 14369 28
11496 14366 14370 28
11497 14371 14372 28
11498 14371 14373 28
11499 14371 14374 28
11500 14371 14375 28
11501 14376 14377 28
11502 14376 14378 28
11503 14376 14379 28
11504 14376 14380 28
11505 14381 14382 28
11506 14381 14383 28
11507 14381 14384 28
11508 14381 14385 28
11509 14386 14387 28
11510 14386 14388 28
11511 14386 14389 28
11512 14386 14390 28
11513 14391 14392 28
11514 14391 14393 28
11515 14391 14394 28
11516 14391 14395 28
11517 14396 14397 28
11518 14396 14398 28
11519 14396 14399 28
11520 14396 14400 28
11521 14401 14402 28
11522 14401 14403 28
11523 14401 14404 28
11524 14401 14405 28
11525 14406 14407 28
11526 14406 14408 28
11527 14406 14409 28
11528 14406 14410 28
11529 14411 14412 28
11530 14411 14413 28
11531 14411 14414 28
11532 14411 14415 28
11533 14416 14417 28
11534 14416 14418 28
11535 14416 14419 28
11536 14416 14420 28
11537 14421 14422 28
11538 14421 14423 28
11539 14421 14424 28
11540 14421 14425 28
11541 14426 14427 28
11542 14426 14428 28
11543 14426 14429 28
11544 14426 14430 28
11545 14431 14432 28
11546 14431 14433 28
11547 14431 14434 28
11548 14431 14435 28
11549 14436 14437 28
11550 14436 14438 28
11551 14436 14439 28
11552 14436 14440 28
11553 14441 14442 28
11554 14441 14443 28
11555 14441 14444 28
11556 14441 14445 28
11557 14446 14447 28
11558 14446 14448 28
11559 14446 14449 28
11560 14446 14450 28
11561 14451 14452 28
11562 14451 14453 28
11563 14451 14454 28
11564 14451 14455 28
11565 14456 14457 28
11566 14456 14458 28
11567 14456 14459 28
11568 14456 14460 28
11569 14461 14462 28
11570 14461 14463 28
11571 14461 14464 28
11572 14461 14465 28
11573 14466 14467 28
11574 14466 14468 28
11575 14466 14469 28
11576 14466 14470 28
11577 14471 14472 28
11578 14471 14473 28
11579 14471 14474 28
11580 14471 14475 28
11581 14476 14477 28
11582 14476 14478 28
11583 14476 14479 28
11584 14476 14480 28
11585 14481 14482 28
11586 14481 14483 28
11587 14481 14484 28
11588 14481 14485 28
11589 14486 14487 28
11590 14486 14488 28
11591 14486 14489 28
11592 14486 14490 28
11593 14491 14492 28
11594 14491 14493 28
11595 14491 14494 28
11596 14491 14495 28
11597 14496 14497 28
11598 14496 14498 28
11599 14496 14499 28
11600 14496 14500 28
11601 14501 14502 28
11602 14501 14503 28
11603 14501 14504 28
11604 14501 14505 28
11605 14506 14507 28
11606 14506 14508 28
11607 14506 14509 28
11608 14506 14510 28
11609 14511 14512 28
11610 14511 14513 28
11611 14511 14514 28
11612 14511 14515 28
11613 14516 14517 28
11614 14516 14518 28
11615 14516 14519 28
11616 14516 14520 28
11617 14521 14522 28
11618 14521 14523 28
11619 14521 14524 28
11620 14521 14525 28
11621 14526 14527 28
11622 14526 14528 28
11623 14526 14529 28
11624 14526 14530 28
11625 14531 14532 28
11626 14531 14533 28
11627 14531 14534 28
11628 14531 14535 28
11629 14536 14537 28
11630 14536 14538 28
11631 14536 14539 28
11632 14536 14540 28
11633 14541 14542 28
11634 14541 14543 28
11635 14541 14544 28
11636 14541 14545 28
11637 14546 14547 28
11638 14546 14548 28
11639 14546 14549 28
11640 14546 14550 28
11641 14551 14552 28
11642 14551 14553 28
11643 14551 14554 28
11644 14551 14555 28
11645 14556 14557 28
11646 14556 14558 28
11647 14556 14559 28
11648 14556 14560 28
11649 14561 14562 28
11650 14561 14563 28
11651 14561 14564 28
11652 14561 14565 28
11653 14566 14567 28
11654 14566 14568 28
11655 14566 14569 28
11656 14566 14570 28
11657 14571 14572 28
11658 14571 14573 28
11659 14571 14574 28
11660 14571 14575 28
11661 14576 14577 28
11662 14576 14578 28
11663 14576 14579 28
11664 14576 14580 28
11665 14581 14582 28
11666 14581 14583 28
11667 14581 14584 28
11668 14581 14585 28
11669 14586 14587 28
11670 14586 14588 28
11671 14586 14589 28
11672 14586 14590 28
11673 14591 14592 28
11674 14591 14593 28
11675 14591 14594 28
11676 14591 14595 28
11677 14596 14597 28
11678 14596 14598 28
11679 14596 14599 28
11680 14596 14600 28
11681 14601 14602 28
11682 14601 14603 28
11683 14601 14604 28
11684 14601 14605 28
11685 14606 14607 28
11686 14606 14608 28
11687 14606 14609 28
11688 14606 14610 28
11689 14611 14612 28
11690 14611 14613 28
11691 14611 14614 28
11692 14611 14615 28
11693 14616 14617 28
11694 14616 14618 28
11695 14616 14619 28
11696 14616 14620 28
11697 14621 14622 28
11698 14621 14623 28
11699 14621 14624 28
11700 14621 14625 28
11701 14626 14627 28
11702 14626 14628 28
11703 14626 14629 28
11704 14626 14630 28
11705 14631 14632 28
11706 14631 14633 28
11707 14631 14634 28
11708 14631 14635 28
11709 14636 14637 28
11710 14636 14638 28
11711 14636 14639 28
11712 14636 14640 28
11713 14641 14642 28
11714 14641 14643 28
11715 14641 14644 28
11716 14641 14645 28
11717 14646 14647 28
11718 14646 14648 28
11719 14646 14649 28
11720 14646 14650 28
11721 14651 14652 28
11722 14651 14653 28
11723 14651 14654 28
11724 14651 14655 28
11725 14656 14657 28
11726 14656 14658 28
11727 14656 14659 28
11728 14656 14660 28
11729 14661 14662 28
11730 14661 14663 28
11731 14661 14664 28
11732 14661 14665 28
11733 14666 14667 28
11734 14666 14668 28
11735 14666 14669 28
11736 14666 14670 28
11737 14671 14672 28
11738 14671 14673 28
11739 14671 14674 28
11740 14671 14675 28
11741 14676 14677 28
11742 14676 14678 28
11743 14676 14679 28
11744 14676 14680 28
11745 14681 14682 28
11746 14681 14683 28
11747 14681 14684 28
11748 14681 14685 28
11749 14686 14687 28
11750 14686 14688 28
11751 14686 14689 28
11752 14686 14690 28
11753 14691 14692 28
11754 14691 14693 28
11755 14691 14694 28
11756 14691 14695 28
11757 14696 14697 28
11758 14696 14698 28
11759 14696 14699 28
11760 14696 14700 28
11761 14701 14702 28
11762 14701 14703 28
11763 14701 14704 28
11764 14701 14705 28
11765 14706 14707 28
11766 14706 14708 28
11767 14706 14709 28
11768 14706 14710 28
11769 14711 14712 28
11770 14711 14713 28
11771 14711 14714 28
11772 14711 14715 28
11773 14716 14717 28
11774 14716 14718 28
11775 14716 14719 28
11776 14716 14720 28
11777 14721 14722 28
11778 14721 14723 28
11779 14721 14724 28
11780 14721 14725 28
11781 14726 14727 28
11782 14726 14728 28
11783 14726 14729 28
11784 14726 14730 28
11785 14731 14732 28
11786 14731 14733 28
11787 14731 14734 28
11788 14731 14735 28
11789 14736 14737 28
11790 14736 14738 28
11791 14736 14739 28
11792 14736 14740 28
11793 14741 14742 28
11794 14741 14743 28
11795 14741 14744 28
11796 14741 14745 28
11797 14746 14747 28
11798 14746 14748 28
11799 14746 14749 28
11800 14746 14750 28
11801 14751 14752 28
11802 14751 14753 28
11803 14751 14754 28
11804 14751 14755 28
11805 14756 14757 28
11806 14756 14758 28
11807 14756 14759 28
11808 14756 14760 28
11809 14761 14762 28
11810 14761 14763 28
11811 14761 14764 28
11812 14761 14765 28
11813 14766 14767 28
11814 14766 14768 28
11815 14766 14769 28
11816 14766 14770 28
11817 14771 14772 28
11818 14771 14773 28
11819 14771 14774 28
11820 14771 14775 28
11821 14776 14777 28
11822 14776 14778 28
11823 14776 14779 28
11824 14776 14780 28
11825 14781 14782 28
11826 14781 14783 28
11827 14781 14784 28
11828 14781 14785 28
11829 14786 14787 28
11830 14786 14788 28
11831 14786 14789 28
11832 14786 14790 28
11833 14791 14792 28
11834 14791 14793 28
11835 14791 14794 28
11836 14791 14795 28
11837 14796 14797 28
11838 14796 14798 28
11839 14796 14799 28
11840 14796 14800 28
11841 14801 14802 28
11842 14801 14803 28
11843 14801 14804 28
11844 14801 14805 28
11845 14806 14807 28
11846 14806 14808 28
11847 14806 14809 28
11848 14806 14810 28
11849 14811 14812 28
11850 14811 14813 28
11851 14811 14814 28
11852 14811 14815 28
11853 14816 14817 28
11854 14816 14818 28
11855 14816 14819 28
11856 14816 14820 28
11857 14821 14822 28
11858 14821 14823 28
11859 14821 14824 28
11860 14821 14825 28
11861 14826 14827 28
11862 14826 14828 28
11863 14826 14829 28
11864 14826 14830 28
11865 14831 14832 28
11866 14831 14833 28
11867 14831 14834 28
11868 14831 14835 28
11869 14836 14837 28
11870 14836 14838 28
11871 14836 14839 28
11872 14836 14840 28
11873 14841 14842 28
11874 14841 14843 28
11875 14841 14844 28
11876 14841 14845 28
11877 14846 14847 28
11878 14846 14848 28
11879 14846 14849 28
11880 14846 14850 28
11881 14851 14852 28
11882 14851 14853 28
11883 14851 14854 28
11884 14851 14855 28
11885 14856 14857 28
11886 14856 14858 28
11887 14856 14859 28
11888 14856 14860 28
11889 14861 14862 28
11890 14861 14863 28
11891 14861 14864 28
11892 14861 14865 28
11893 14866 14867 28
11894 14866 14868 28
11895 14866 14869 28
11896 14866 14870 28
11897 14871 14872 28
11898 14871 14873 28
11899 14871 14874 28
11900 14871 14875 28
11901 14876 14877 28
11902 14876 14878 28
11903 14876 14879 28
11904 14876 14880 28
11905 14881 14882 28
11906 14881 14883 28
11907 14881 14884 28
11908 14881 14885 28
11909 14886 14887 28
11910 14886 14888 28
11911 14886 14889 28
11912 14886 14890 28
11913 14891 14892 28
11914 14891 14893 28
11915 14891 14894 28
11916 14891 14895 28
11917 14896 14897 28
11918 14896 14898 28
11919 14896 14899 28
11920 14896 14900 28
11921 14901 14902 28
11922 14901 14903 28
11923 14901 14904 28
11924 14901 14905 28
11925 14906 14907 28
11926 14906 14908 28
11927 14906 14909 28
11928 14906 14910 28
11929 14911 14912 28
11930 14911 14913 28
11931 14911 14914 28
11932 14911 14915 28
11933 14916 14917 28
11934 14916 14918 28
11935 14916 14919 28
11936 14916 14920 28
11937 14921 14922 28
11938 14921 14923 28
11939 14921 14924 28
11940 14921 14925 28
11941 14926 14927 28
11942 14926 14928 28
11943 14926 14929 28
11944 14926 14930 28
11945 14931 14932 28
11946 14931 14933 28
11947 14931 14934 28
11948 14931 14935 28
11949 14936 14937 28
11950 14936 14938 28
11951 14936 14939 28
11952 14936 14940 28
11953 14941 14942 28
11954 14941 14943 28
11955 14941 14944 28
11956 14941 14945 28
11957 14946 14947 28
11958 14946 14948 28
11959 14946 14949 28
11960 14946 14950 28
11961 14951 14952 28
11962 14951 14953 28
11963 14951 14954 28
11964 14951 14955 28
11965 14956 14957 28
11966 14956 14958 28
11967 14956 14959 28
11968 14956 14960 28
11969 14961 14962 28
11970 14961 14963 28
11971 14961 14964 28
11972 14961 14965 28
11973 14966 14967 28
11974 14966 14968 28
11975 14966 14969 28
11976 14966 14970 28
11977 14971 14972 28
11978 14971 14973 28
11979 14971 14974 28
11980 14971 14975 28
11981 14976 14977 28
11982 14976 14978 28
11983 14976 14979 28
11984 14976 14980 28
11985 14981 14982 28
11986 14981 14983 28
11987 14981 14984 28
11988 14981 14985 28
11989 14986 14987 28
11990 14986 14988 28
11991 14986 14989 28
11992 14986 14990 28
11993 14991 14992 28
11994 14991 14993 28
11995 14991 14994 28
11996 14991 14995 28
11997 14996 14997 28
11998 14996 14998 28
11999 14996 14999 28
12000 14996 15000 28
12001 15001 15002 28
12002 15001 15003 28
12003 15001 15004 28
12004 15001 15005 28
12005 15006 15007 28
12006 15006 15008 28
12007 15006 15009 28
12008 15006 15010 28
12009 15011 15012 28
12010 15011 15013 28
12011 15011 15014 28
12012 15011 15015 28
12013 15016 15017 28
12014 15016 15018 28
12015 15016 15019 28
12016 15016 15020 28
12017 15021 15022 28
12018 15021 15023 28
12019 15021 15024 28
12020 15021 15025 28
12021 15026 15027 28
12022 15026 15028 28
12023 15026 15029 28
12024 15026 15030 28
12025 15031 15032 28
12026 15031 15033 28
12027 15031 15034 28
12028 15031 15035 28
12029 15036 15037 28
12030 15036 15038 28
12031 15036 15039 28
12032 15036 15040 28
12033 15041 15042 28
12034 15041 15043 28
12035 15041 15044 28
12036 15041 15045 28
12037 15046 15047 28
12038 15046 15048 28
12039 15046 15049 28
12040 15046 15050 28
12041 15051 15052 28
12042 15051 15053 28
12043 15051 15054 28
12044 15051 15055 28
12045 15056 15057 28
12046 15056 15058 28
12047 15056 15059 28
12048 15056 15060 28
12049 15061 15062 28
12050 15061 15063 28
12051 15061 15064 28
12052 15061 15065 28
12053 15066 15067 28
12054 15066 15068 28
12055 15066 15069 28
12056 15066 15070 28
12057 15071 15072 28
12058 15071 15073 28
12059 15071 15074 28
12060 15071 15075 28
12061 15076 15077 28
12062 15076 15078 28
12063 15076 15079 28
12064 15076 15080 28
12065 15081 15082 28
12066 15081 15083 28
12067 15081 15084 28
12068 15081 15085 28
12069 15086 15087 28
12070 15086 15088 28
12071 15086 15089 28
12072 15086 15090 28
12073 15091 15092 28
12074 15091 15093 28
12075 15091 15094 28
12076 15091 15095 28
12077 15096 15097 28
12078 15096 15098 28
12079 15096 15099 28
12080 15096 15100 28
12081 15101 15102 28
12082 15101 15103 28
12083 15101 15104 28
12084 15101 15105 28
12085 15106 15107 28
12086 15106 15108 28
12087 15106 15109 28
12088 15106 15110 28
12089 15111 15112 28
12090 15111 15113 28
12091 15111 15114 28
12092 15111 15115 28
12093 15116 15117 28
12094 15116 15118 28
12095 15116 15119 28
12096 15116 15120 28
12097 15121 15122 28
12098 15121 15123 28
12099 15121 15124 28
12100 15121 15125 28
12101 15126 15127 28
12102 15126 15128 28
12103 15126 15129 28
12104 15126 15130 28
12105 15131 15132 28
12106 15131 15133 28
12107 15131 15134 28
12108 15131 15135 28
12109 15136 15137 28
12110 15136 15138 28
12111 15136 15139 28
12112 15136 15140 28
12113 15141 15142 28
12114 15141 15143 28
12115 15141 15144 28
12116 15141 15145 28
12117 15146 15147 28
12118 15146 15148 28
12119 15146 15149 28
12120 15146 15150 28
12121 15151 15152 28
12122 15151 15153 28
12123 15151 15154 28
12124 15151 15155 28
12125 15156 15157 28
12126 15156 15158 28
12127 15156 15159 28
12128 15156 15160 28
12129 15161 15162 28
12130 15161 15163 28
12131 15161 15164 28
12132 15161 15165 28
12133 15166 15167 28
12134 15166 15168 28
12135 15166 15169 28
12136 15166 15170 28
12137 15171 15172 28
12138 15171 15173 28
12139 15171 15174 28
12140 15171 15175 28
12141 15176 15177 28
12142 15176 15178 28
12143 15176 15179 28
12144 15176 15180 28
12145 15181 15182 28
12146 15181 15183 28
12147 15181 15184 28
12148 15181 15185 28
12149 15186 15187 28
12150 15186 15188 28
12151 15186 15189 28
12152 15186 15190 28
12153 15191 15192 28
12154 15191 15193 28
12155 15191 15194 28
12156 15191 15195 28
12157 15196 15197 28
12158 15196 15198 28
12159 15196 15199 28
12160 15196 15200 28
12161 15201 15202 28
12162 15201 15203 28
12163 15201 15204 28
12164 15201 15205 28
12165 15206 15207 28
12166 15206 15208 28
12167 15206 15209 28
12168 15206 15210 28
12169 15211 15212 28
12170 15211 15213 28
12171 15211 15214 28
12172 15211 15215 28
12173 15216 15217 28
12174 15216 15218 28
12175 15216 15219 28
12176 15216 15220 28
12177 15221 15222 28
12178 15221 15223 28
12179 15221 15224 28
12180 15221 15225 28
12181 15226 15227 28
12182 15226 15228 28
12183 15226 15229 28
12184 15226 15230 28
12185 15231 15232 28
12186 15231 15233 28
12187 15231 15234 28
12188 15231 15235 28
12189 15236 15237 28
12190 15236 15238 28
12191 15236 15239 28
12192 15236 15240 28
12193 15241 15242 28
12194 15241 15243 28
12195 15241 15244 28
12196 15241 15245 28
12197 15246 15247 28
12198 15246 15248 28
12199 15246 15249 28
12200 15246 15250 28
12201 15251 15252 28
12202 15251 15253 28
12203 15251 15254 28
12204 15251 15255 28
12205 15256 15257 28
12206 15256 15258 28
12207 15256 15259 28
12208 15256 15260 28
12209 15261 15262 28
12210 15261 15263 28
12211 15261 15264 28
12212 15261 15265 28
12213 15266 15267 28
12214 15266 15268 28
12215 15266 15269 28
12216 15266 15270 28
12217 15271 15272 28
12218 15271 15273 28
12219 15271 15274 28
12220 15271 15275 28
12221 15276 15277 28
12222 15276 15278 28
12223 15276 15279 28
12224 15276 15280 28
12225 15281 15282 28
12226 15281 15283 28
12227 15281 15284 28
12228 15281 15285 28
12229 15286 15287 28
12230 15286 15288 28
12231 15286 15289 28
12232 15286 15290 28
12233 15291 15292 28
12234 15291 15293 28
12235 15291 15294 28
12236 15291 15295 28
12237 15296 15297 28
12238 15296 15298 28
12239 15296 15299 28
12240 15296 15300 28
12241 15301 15302 28
12242 15301 15303 28
12243 15301 15304 28
12244 15301 15305 28
12245 15306 15307 28
12246 15306 15308 28
12247 15306 15309 28
12248 15306 15310 28
12249 15311 15312 28
12250 15311 15313 28
12251 15311 15314 28
12252 15311 15315 28
12253 15316 15317 28
12254 15316 15318 28
12255 15316 15319 28
12256 15316 15320 28
12257 15321 15322 28
12258 15321 15323 28
12259 15321 15324 28
12260 15321 15325 28
12261 15326 15327 28
12262 15326 15328 28
12263 15326 15329 28
12264 15326 15330 28
12265 15331 15332 28
12266 15331 15333 28
12267 15331 15334 28
12268 15331 15335 28
12269 15336 15337 28
12270 15336 15338 28
12271 15336 15339 28
12272 15336 15340 28
12273 15341 15342 28
12274 15341 15343 28
12275 15341 15344 28
12276 15341 15345 28
12277 15346 15347 28
12278 15346 15348 28
12279 15346 15349 28
12280 15346 15350 28
12281 15351 15352 28
12282 15351 15353 28
12283 15351 15354 28
12284 15351 15355 28
12285 15356 15357 28
12286 15356 15358 28
12287 15356 15359 28
12288 15356 15360 28
12289 15361 15362 28
12290 15361 15363 28
12291 15361 15364 28
12292 15361 15365 28
12293 15366 15367 28
12294 15366 15368 28
12295 15366 15369 28
12296 15366 15370 28
12297 15371 15372 28
12298 15371 15373 28
12299 15371 15374 28
12300 15371 15375 28
12301 15376 15377 28
12302 15376 15378 28
12303 15376 15379 28
12304 15376 15380 28
12305 15381 15382 28
12306 15381 15383 28
12307 15381 15384 28
12308 15381 15385 28
12309 15386 15387 28
12310 15386 15388 28
12311 15386 15389 28
12312 15386 15390 28
12313 15391 15392 28
12314 15391 15393 28
12315 15391 15394 28
12316 15391 15395 28
12317 15396 15397 28
12318 15396 15398 28
12319 15396 15399 28
12320 15396 15400 28
12321 15401 15402 28
12322 15401 15403 28
12323 15401 15404 28
12324 15401 15405 28
12325 15406 15407 28
12326 15406 15408 28
12327 15406 15409 28
12328 15406 15410 28
12329 15411 15412 28
12330 15411 15413 28
12331 15411 15414 28
12332 15411 15415 28
12333 15416 15417 28
12334 15416 15418 28
12335 15416 15419 28
12336 15416 15420 28
12337 15421 15422 28
12338 15421 15423 28
12339 15421 15424 28
12340 15421 15425 28
12341 15426 15427 28
12342 15426 15428 28
12343 15426 15429 28
12344 15426 15430 28
12345 15431 15432 28
12346 15431 15433 28
12347 15431 15434 28
12348 15431 15435 28
12349 15436 15437 28
12350 15436 15438 28
12351 15436 15439 28
12352 15436 15440 28
12353 15441 15442 28
12354 15441 15443 28
12355 15441 15444 28
12356 15441 15445 28
12357 15446 15447 28
12358 15446 15448 28
12359 15446 15449 28
12360 15446 15450 28
12361 15451 15452 28
12362 15451 15453 28
12363 15451 15454 28
12364 15451 15455 28
12365 15456 15457 28
12366 15456 15458 28
12367 15456 15459 28
12368 15456 15460 28
12369 15461 15462 28
12370 15461 15463 28
12371 15461 15464 28
12372 15461 15465 28
12373 15466 15467 28
12374 15466 15468 28
12375 15466 15469 28
12376 15466 15470 28
12377 15471 15472 28
12378 15471 15473 28
12379 15471 15474 28
12380 15471 15475 28
12381 15476 15477 28
12382 15476 15478 28
12383 15476 15479 28
12384 15476 15480 28
12385 15481 15482 28
12386 15481 15483 28
12387 15481 15484 28
12388 15481 15485 28
12389 15486 15487 28
12390 15486 15488 28
12391 15486 15489 28
12392 15486 15490 28
12393 15491 15492 28
12394 15491 15493 28
12395 15491 15494 28
12396 15491 15495 28
12397 15496 15497 28
12398 15496 15498 28
12399 15496 15499 28
12400 15496 15500 28
12401 15501 15502 28
12402 15501 15503 28
12403 15501 15504 28
12404 15501 15505 28
12405 15506 15507 28
12406 15506 15508 28
12407 15506 15509 28
12408 15506 15510 28
12409 15511 15512 28
12410 15511 15513 28
12411 15511 15514 28
12412 15511 15515 28
12413 15516 15517 28
12414 15516 15518 28
12415 15516 15519 28
12416 15516 15520 28
12417 15521 15522 28
12418 15521 15523 28
12419 15521 15524 28
12420 15521 15525 28
12421 15526 15527 28
12422 15526 15528 28
12423 15526 15529 28
12424 15526 15530 28
12425 15531 15532 28
12426 15531 15533 28
12427 15531 15534 28
12428 15531 15535 28
12429 15536 15537 28
12430 15536 15538 28
12431 15536 15539 28
12432 15536 15540 28
12433 15541 15542 28
12434 15541 15543 28
12435 15541 15544 28
12436 15541 15545 28
12437 15546 15547 28
12438 15546 15548 28
12439 15546 15549 28
12440 15546 15550 28
12441 15551 15552 28
12442 15551 15553 28
12443 15551 15554 28
12444 15551 15555 28
12445 15556 15557 28
12446 15556 15558 28
12447 15556 15559 28
12448 15556 15560 28
12449 15561 15562 28
12450 15561 15563 28
12451 15561 15564 28
12452 15561 15565 28
12453 15566 15567 28
12454 15566 15568 28
12455 15566 15569 28
12456 15566 15570 28
12457 15571 15572 28
12458 15571 15573 28
12459 15571 15574 28
12460 15571 15575 28
12461 15576 15577 28
12462 15576 15578 28
12463 15576 15579 28
12464 15576 15580 28
12465 15581 15582 28
12466 15581 15583 28
12467 15581 15584 28
12468 15581 15585 28
12469 15586 15587 28
12470 15586 15588 28
12471 15586 15589 28
12472 15586 15590 28
12473 15591 15592 28
12474 15591 15593 28
12475 15591 15594 28
12476 15591 15595 28
12477 15596 15597 28
12478 15596 15598 28
12479 15596 15599 28
12480 15596 15600 28
12481 15601 15602 28
12482 15601 15603 28
12483 15601 15604 28
12484 15601 15605 28
12485 15606 15607 28
12486 15606 15608 28
12487 15606 15609 28
12488 15606 15610 28
12489 15611 15612 28
12490 15611 15613 28
12491 15611 15614 28
12492 15611 15615 28
12493 15616 15617 28
12494 15616 15618 28
12495 15616 15619 28
12496 15616 15620 28
12497 15621 15622 28
12498 15621 15623 28
12499 15621 15624 28
12500 15621 15625 28
12501 15626 15627 28
12502 15626 15628 28
12503 15626 15629 28
12504 15626 15630 28
12505 15631 15632 28
12506 15631 15633 28
12507 15631 15634 28
12508 15631 15635 28
12509 15636 15637 28
12510 15636 15638 28
12511 15636 15639 28
12512 15636 15640 28
12513 15641 15642 28
12514 15641 15643 28
12515 15641 15644 28
12516 15641 15645 28
12517 15646 15647 28
12518 15646 15648 28
12519 15646 15649 28
12520 15646 15650 28
12521 15651 15652 28
12522 15651 15653 28
12523 15651 15654 28
12524 15651 15655 28
12525 15656 15657 28
12526 15656 15658 28
12527 15656 15659 28
12528 15656 15660 28
12529 15661 15662 28
12530 15661 15663 28
12531 15661 15664 28
12532 15661 15665 28
12533 15666 15667 28
12534 15666 15668 28
12535 15666 15669 28
12536 15666 15670 28
12537 15671 15672 28
12538 15671 15673 28
12539 15671 15674 28
12540 15671 15675 28
12541 15676 15677 28
12542 15676 15678 28
12543 15676 15679 28
12544 15676 15680 28
12545 15681 15682 28
12546 15681 15683 28
12547 15681 15684 28
12548 15681 15685 28
12549 15686 15687 28
12550 15686 15688 28
12551 15686 15689 28
12552 15686 15690 28
12553 15691 15692 28
12554 15691 15693 28
12555 15691 15694 28
12556 15691 15695 28
12557 15696 15697 28
12558 15696 15698 28
12559 15696 15699 28
12560 15696 15700 28
12561 15701 15702 28
12562 15701 15703 28
12563 15701 15704 28
12564 15701 15705 28
12565 15706 15707 28
12566 15706 15708 28
12567 15706 15709 28
12568 15706 15710 28
12569 15711 15712 28
12570 15711 15713 28
12571 15711 15714 28
12572 15711 15715 28
12573 15716 15717 28
12574 15716 15718 28
12575 15716 15719 28
12576 15716 15720 28
12577 15721 15722 28
12578 15721 15723 28
12579 15721 15724 28
12580 15721 15725 28
12581 15726 15727 28
12582 15726 15728 28
12583 15726 15729 28
12584 15726 15730 28
12585 15731 15732 28
12586 15731 15733 28
12587 15731 15734 28
12588 15731 15735 28
12589 15736 15737 28
12590 15736 15738 28
12591 15736 15739 28
12592 15736 15740 28
12593 15741 15742 28
12594 15741 15743 28
12595 15741 15744 28
12596 15741 15745 28
12597 15746 15747 28
12598 15746 15748 28
12599 15746 15749 28
12600 15746 15750 28
12601 15751 15752 28
12602 15751 15753 28
12603 15751 15754 28
12604 15751 15755 28
12605 15756 15757 28
12606 15756 15758 28
12607 15756 15759 28
12608 15756 15760 28
12609 15761 15762 28
12610 15761 15763 28
12611 15761 15764 28
12612 15761 15765 28
12613 15766 15767 28
12614 15766 15768 28
12615 15766 15769 28
12616 15766 15770 28
12617 15771 15772 28
12618 15771 15773 28
12619 15771 15774 28
12620 15771 15775 28
12621 15776 15777 28
12622 15776 15778 28
12623 15776 15779 28
12624 15776 15780 28
12625 15781 15782 28
12626 15781 15783 28
12627 15781 15784 28
12628 15781 15785 28
12629 15786 15787 28
12630 15786 15788 28
12631 15786 15789 28
12632 15786 15790 28
12633 15791 15792 28
12634 15791 15793 28
12635 15791 15794 28
12636 15791 15795 28
12637 15796 15797 28
12638 15796 15798 28
12639 15796 15799 28
12640 15796 15800 28
12641 15801 15802 28
12642 15801 15803 28
12643 15801 15804 28
12644 15801 15805 28
12645 15806 15807 28
12646 15806 15808 28
12647 15806 15809 28
12648 15806 15810 28
12649 15811 15812 28
12650 15811 15813 28
12651 15811 15814 28
12652 15811 15815 28
12653 15816 15817 28
12654 15816 15818 28
12655 15816 15819 28
12656 15816 15820 28
12657 15821 15822 28
12658 15821 15823 28
12659 15821 15824 28
12660 15821 15825 28
12661 15826 15827 28
12662 15826 15828 28
12663 15826 15829 28
12664 15826 15830 28
12665 15831 15832 28
12666 15831 15833 28
12667 15831 15834 28
12668 15831 15835 28
12669 15836 15837 28
12670 15836 15838 28
12671 15836 15839 28
12672 15836 15840 28
12673 15841 15842 28
12674 15841 15843 28
12675 15841 15844 28
12676 15841 15845 28
12677 15846 15847 28
12678 15846 15848 28
12679 15846 15849 28
12680 15846 15850 28
12681 15851 15852 28
12682 15851 15853 28
12683 15851 15854 28
12684 15851 15855 28
12685 15856 15857 28
12686 15856 15858 28
12687 15856 15859 28
12688 15856 15860 28
12689 15861 15862 28
12690 15861 15863 28
12691 15861 15864 28
12692 15861 15865 28
12693 15866 15867 28
12694 15866 15868 28
12695 15866 15869 28
12696 15866 15870 28
12697 15871 15872 28
12698 15871 15873 28
12699 15871 15874 28
12700 15871 15875 28
12701 15876 15877 28
12702 15876 15878 28
12703 15876 15879 28
12704 15876 15880 28
12705 15881 15882 28
12706 15881 15883 28
12707 15881 15884 28
12708 15881 15885 28
12709 15886 15887 28
12710 15886 15888 28
12711 15886 15889 28
12712 15886 15890 28
12713 15891 15892 28
12714 15891 15893 28
12715 15891 15894 28
12716 15891 15895 28
12717 15896 15897 28
12718 15896 15898 28
12719 15896 15899 28
12720 15896 15900 28
12721 15901 15902 28
12722 15901 15903 28
12723 15901 15904 28
12724 15901 15905 28
12725 15906 15907 28
12726 15906 15908 28
12727 15906 15909 28
12728 15906 15910 28
12729 15911 15912 28
12730 15911 15913 28
12731 15911 15914 28
12732 15911 15915 28
12733 15916 15917 28
12734 15916 15918 28
12735 15916 15919 28
12736 15916 15920 28
12737 15921 15922 28
12738 15921 15923 28
12739 15921 15924 28
12740 15921 15925 28
12741 15926 15927 28
12742 15926 15928 28
12743 15926 15929 28
12744 15926 15930 28
12745 15931 15932 28
12746 15931 15933 28
12747 15931 15934 28
12748 15931 15935 28
12749 15936 15937 28
12750 15936 15938 28
12751 15936 15939 28
12752 15936 15940 28
12753 15941 15942 28
12754 15941 15943 28
12755 15941 15944 28
12756 15941 15945 28
12757 15946 15947 28
12758 15946 15948 28
12759 15946 15949 28
12760 15946 15950 28
12761 15951 15952 28
12762 15951 15953 28
12763 15951 15954 28
12764 15951 15955 28
12765 15956 15957 28
12766 15956 15958 28
12767 15956 15959 28
12768 15956 15960 28
12769 15961 15962 28
12770 15961 15963 28
12771 15961 15964 28
12772 15961 15965 28
12773 15966 15967 28
12774 15966 15968 28
12775 15966 15969 28
12776 15966 15970 28
12777 15971 15972 28
12778 15971 15973 28
12779 15971 15974 28
12780 15971 15975 28
12781 15976 15977 28
12782 15976 15978 28
12783 15976 15979 28
12784 15976 15980 28
12785 15981 15982 28
12786 15981 15983 28
12787 15981 15984 28
12788 15981 15985 28
12789 15986 15987 28
12790 15986 15988 28
12791 15986 15989 28
12792 15986 15990 28
12793 15991 15992 28
12794 15991 15993 28
12795 15991 15994 28
12796 15991 15995 28
12797 15996 15997 28
12798 15996 15998 28
12799 15996 15999 28
12800 15996 16000 28
12801 16001 16002 28
12802 16001 16003 28
12803 16001 16004 28
12804 16001 16005 28
12805 16006 16007 28
12806 16006 16008 28
12807 16006 16009 28
12808 16006 16010 28
12809 16011 16012 28
12810 16011 16013 28
12811 16011 16014 28
12812 16011 16015 28
12813 16016 16017 28
12814 16016 16018 28
12815 16016 16019 28
12816 16016 16020 28
12817 16021 16022 28
12818 16021 16023 28
12819 16021 16024 28
12820 16021 16025 28
12821 16026 16027 28
12822 16026 16028 28
12823 16026 16029 28
12824 16026 16030 28
12825 16031 16032 28
12826 16031 16033 28
12827 16031 16034 28
12828 16031 16035 28
12829 16036 16037 28
12830 16036 16038 28
12831 16036 16039 28
12832 16036 16040 28
12833 16041 16042 28
12834 16041 16043 28
12835 16041 16044 28
12836 16041 16045 28
12837 16046 16047 28
12838 16046 16048 28
12839 16046 16049 28
12840 16046 16050 28
12841 16051 16052 28
12842 16051 16053 28
12843 16051 16054 28
12844 16051 16055 28
12845 16056 16057 28
12846 16056 16058 28
12847 16056 16059 28
12848 16056 16060 28
12849 16061 16062 28
12850 16061 16063 28
12851 16061 16064 28
12852 16061 16065 28
12853 16066 16067 28
12854 16066 16068 28
12855 16066 16069 28
12856 16066 16070 28
12857 16071 16072 28
12858 16071 16073 28
12859 16071 16074 28
12860 16071 16075 28
12861 16076 16077 28
12862 16076 16078 28
12863 16076 16079 28
12864 16076 16080 28
12865 16081 16082 28
12866 16081 16083 28
12867 16081 16084 28
12868 16081 16085 28
12869 16086 16087 28
12870 16086 16088 28
12871 16086 16089 28
12872 16086 16090 28
12873 16091 16092 28
12874 16091 16093 28
12875 16091 16094 28
12876 16091 16095 28
12877 16096 16097 28
12878 16096 16098 28
12879 16096 16099 28
12880 16096 16100 28
12881 16101 16102 28
12882 16101 16103 28
12883 16101 16104 28
12884 16101 16105 28
12885 16106 16107 28
12886 16106 16108 28
12887 16106 16109 28
12888 16106 16110 28
12889 16111 16112 28
12890 16111 16113 28
12891 16111 16114 28
12892 16111 16115 28
12893 16116 16117 28
12894 16116 16118 28
12895 16116 16119 28
12896 16116 16120 28
12897 16121 16122 28
12898 16121 16123 28
12899 16121 16124 28
12900 16121 16125 28
12901 16126 16127 28
12902 16126 16128 28
12903 16126 16129 28
12904 16126 16130 28
12905 16131 16132 28
12906 16131 16133 28
12907 16131 16134 28
12908 16131 16135 28
12909 16136 16137 28
12910 16136 16138 28
12911 16136 16139 28
12912 16136 16140 28
12913 16141 16142 28
12914 16141 16143 28
12915 16141 16144 28
12916 16141 16145 28
12917 16146 16147 28
12918 16146 16148 28
12919 16146 16149 28
12920 16146 16150 28
12921 16151 16152 28
12922 16151 16153 28
12923 16151 16154 28
12924 16151 16155 28
12925 16156 16157 28
12926 16156 16158 28
12927 16156 16159 28
12928 16156 16160 28
12929 16161 16162 28
12930 16161 16163 28
12931 16161 16164 28
12932 16161 16165 28
12933 16166 16167 28
12934 16166 16168 28
12935 16166 16169 28
12936 16166 16170 28
12937 16171 16172 28
12938 16171 16173 28
12939 16171 16174 28
12940 16171 16175 28
12941 16176 16177 28
12942 16176 16178 28
12943 16176 16179 28
12944 16176 16180 28
12945 16181 16182 28
12946 16181 16183 28
12947 16181 16184 28
12948 16181 16185 28
12949 16186 16187 28
12950 16186 16188 28
12951 16186 16189 28
12952 16186 16190 28
12953 16191 16192 28
12954 16191 16193 28
12955 16191 16194 28
12956 16191 16195 28
12957 16196 16197 28
12958 16196 16198 28
12959 16196 16199 28
12960 16196 16200 28
12961 16201 16202 28
12962 16201 16203 28
12963 16201 16204 28
12964 16201 16205 28
12965 16206 16207 28
12966 16206 16208 28
12967 16206 16209 28
12968 16206 16210 28
12969 16211 16212 28
12970 16211 16213 28
12971 16211 16214 28
12972 16211 16215 28
12973 16216 16217 28
12974 16216 16218 28
12975 16216 16219 28
12976 16216 16220 28
12977 16221 16222 28
12978 16221 16223 28
12979 16221 16224 28
12980 16221 16225 28
12981 16226 16227 28
12982 16226 16228 28
12983 16226 16229 28
12984 16226 16230 28
12985 16231 16232 28
12986 16231 16233 28
12987 16231 16234 28
12988 16231 16235 28
12989 16236 16237 28
12990 16236 16238 28
12991 16236 16239 28
12992 16236 16240 28
12993 16241 16242 28
12994 16241 16243 28
12995 16241 16244 28
12996 16241 16245 28
12997 16246 16247 28
12998 16246 16248 28
12999 16246 16249 28
13000 16246 16250 28
13001 16251 16252 28
13002 16251 16253 28
13003 16251 16254 28
13004 16251 16255 28
13005 16256 16257 28
13006 16256 16258 28
13007 16256 16259 28
13008 16256 16260 28
13009 16261 16262 28
13010 16261 16263 28
13011 16261 16264 28
13012 16261 16265 28
13013 16266 16267 28
13014 16266 16268 28
13015 16266 16269 28
13016 16266 16270 28
13017 16271 16272 28
13018 16271 16273 28
13019 16271 16274 28
13020 16271 16275 28
13021 16276 16277 28
13022 16276 16278 28
13023 16276 16279 28
13024 16276 16280 28
13025 16281 16282 28
13026 16281 16283 28
13027 16281 16284 28
13028 16281 16285 28
13029 16286 16287 28
13030 16286 16288 28
13031 16286 16289 28
13032 16286 16290 28
13033 16291 16292 28
13034 16291 16293 28
13035 16291 16294 28
13036 16291 16295 28
13037 16296 16297 28
13038 16296 16298 28
13039 16296 16299 28
13040 16296 16300 28
13041 16301 16302 28
13042 16301 16303 28
13043 16301 16304 28
13044 16301 16305 28
13045 16306 16307 28
13046 16306 16308 28
13047 16306 16309 28
13048 16306 16310 28
13049 16311 16312 28
13050 16311 16313 28
13051 16311 16314 28
13052 16311 16315 28
13053 16316 16317 28
13054 16316 16318 28
13055 16316 16319 28
13056 16316 16320 28
13057 16321 16322 28
13058 16321 16323 28
13059 16321 16324 28
13060 16321 16325 28
13061 16326 16327 28
13062 16326 16328 28
13063 16326 16329 28
13064 16326 16330 28
13065 16331 16332 28
13066 16331 16333 28
13067 16331 16334 28
13068 16331 16335 28
13069 16336 16337 28
13070 16336 16338 28
13071 16336 16339 28
13072 16336 16340 28
13073 16341 16342 28
13074 16341 16343 28
13075 16341 16344 28
13076 16341 16345 28
13077 16346 16347 28
13078 16346 16348 28
13079 16346 16349 28
13080 16346 16350 28
13081 16351 16352 28
13082 16351 16353 28
13083 16351 16354 28
13084 16351 16355 28
13085 16356 16357 28
13086 16356 16358 28
13087 16356 16359 28
13088 16356 16360 28
13089 16361 16362 28
13090 16361 16363 28
13091 16361 16364 28
13092 16361 16365 28
13093 16366 16367 28
13094 16366 16368 28
13095 16366 16369 28
13096 16366 16370 28
13097 16371 16372 28
13098 16371 16373 28
13099 16371 16374 28
13100 16371 16375 28
13101 16376 16377 28
13102 16376 16378 28
13103 16376 16379 28
13104 16376 16380 28
13105 16381 16382 28
13106 16381 16383 28
13107 16381 16384 28
13108 16381 16385 28
13109 16386 16387 28
13110 16386 16388 28
13111 16386 16389 28
13112 16386 16390 28
13113 16391 16392 28
13114 16391 16393 28
13115 16391 16394 28
13116 16391 16395 28
13117 16396 16397 28
13118 16396 16398 28
13119 16396 16399 28
13120 16396 16400 28
13121 16401 16402 28
13122 16401 16403 28
13123 16401 16404 28
13124 16401 16405 28
13125 16406 16407 28
13126 16406 16408 28
13127 16406 16409 28
13128 16406 16410 28
13129 16411 16412 28
13130 16411 16413 28
13131 16411 16414 28
13132 16411 16415 28
13133 16416 16417 28
13134 16416 16418 28
13135 16416 16419 28
13136 16416 16420 28
13137 16421 16422 28
13138 16421 16423 28
13139 16421 16424 28
13140 16421 16425 28
13141 16426 16427 28
13142 16426 16428 28
13143 16426 16429 28
13144 16426 16430 28
13145 16431 16432 28
13146 16431 16433 28
13147 16431 16434 28
13148 16431 16435 28
13149 16436 16437 28
13150 16436 16438 28
13151 16436 16439 28
13152 16436 16440 28
13153 16441 16442 28
13154 16441 16443 28
13155 16441 16444 28
13156 16441 16445 28
13157 16446 16447 28
13158 16446 16448 28
13159 16446 16449 28
13160 16446 16450 28
13161 16451 16452 28
13162 16451 16453 28
13163 16451 16454 28
13164 16451 16455 28
13165 16456 16457 28
13166 16456 16458 28
13167 16456 16459 28
13168 16456 16460 28
13169 16461 16462 28
13170 16461 16463 28
13171 16461 16464 28
13172 16461 16465 28
13173 16466 16467 28
13174 16466 16468 28
13175 16466 16469 28
13176 16466 16470 28
13177 16471 16472 28
13178 16471 16473 28
13179 16471 16474 28
13180 16471 16475 28
13181 16476 16477 28
13182 16476 16478 28
13183 16476 16479 28
13184 16476 16480 28
13185 16481 16482 28
13186 16481 16483 28
13187 16481 16484 28
13188 16481 16485 28
13189 16486 16487 28
13190 16486 16488 28
13191 16486 16489 28
13192 16486 16490 28
13193 16491 16492 28
13194 16491 16493 28
13195 16491 16494 28
13196 16491 16495 28
13197 16496 16497 28
13198 16496 16498 28
13199 16496 16499 28
13200 16496 16500 28
13201 16501 16502 28
13202 16501 16503 28
13203 16501 16504 28
13204 16501 16505 28
13205 16506 16507 28
13206 16506 16508 28
13207 16506 16509 28
13208 16506 16510 28
13209 16511 16512 28
13210 16511 16513 28
13211 16511 16514 28
13212 16511 16515 28
13213 16516 16517 28
13214 16516 16518 28
13215 16516 16519 28
13216 16516 16520 28
13217 16521 16522 28
13218 16521 16523 28
13219 16521 16524 28
13220 16521 16525 28
13221 16526 16527 28
13222 16526 16528 28
13223 16526 16529 28
13224 16526 16530 28
13225 16531 16532 28
13226 16531 16533 28
13227 16531 16534 28
13228 16531 16535 28
13229 16536 16537 28
13230 16536 16538 28
13231 16536 16539 28
13232 16536 16540 28
13233 16541 16542 28
13234 16541 16543 28
13235 16541 16544 28
13236 16541 16545 28
13237 16546 16547 28
13238 16546 16548 28
13239 16546 16549 28
13240 16546 16550 28
13241 16551 16552 28
13242 16551 16553 28
13243 16551 16554 28
13244 16551 16555 28
13245 16556 16557 28
13246 16556 16558 28
13247 16556 16559 28
13248 16556 16560 28
13249 16561 16562 28
13250 16561 16563 28
13251 16561 16564 28
13252 16561 16565 28
13253 16566 16567 28
13254 16566 16568 28
13255 16566 16569 28
13256 16566 16570 28
13257 16571 16572 28
13258 16571 16573 28
13259 16571 16574 28
13260 16571 16575 28
13261 16576 16577 28
13262 16576 16578 28
13263 16576 16579 28
13264 16576 16580 28
13265 16581 16582 28
13266 16581 16583 28
13267 16581 16584 28
13268 16581 16585 28
13269 16586 16587 28
13270 16586 16588 28
13271 16586 16589 28
13272 16586 16590 28
13273 16591 16592 28
13274 16591 16593 28
13275 16591 16594 28
13276 16591 16595 28
13277 16596 16597 28
13278 16596 16598 28
13279 16596 16599 28
13280 16596 16600 28
13281 16601 16602 28
13282 16601 16603 28
13283 16601 16604 28
13284 16601 16605 28
13285 16606 16607 28
13286 16606 16608 28
13287 16606 16609 28
13288 16606 16610 28
13289 16611 16612 28
13290 16611 16613 28
13291 16611 16614 28
13292 16611 16615 28
13293 16616 16617 28
13294 16616 16618 28
13295 16616 16619 28
13296 16616 16620 28
13297 16621 16622 28
13298 16621 16623 28
13299 16621 16624 28
13300 16621 16625 28
13301 16626 16627 28
13302 16626 16628 28
13303 16626 16629 28
13304 16626 16630 28
13305 16631 16632 28
13306 16631 16633 28
13307 16631 16634 28
13308 16631 16635 28
13309 16636 16637 28
13310 16636 16638 28
13311 16636 16639 28
13312 16636 16640 28
13313 16641 16642 28
13314 16641 16643 28
13315 16641 16644 28
13316 16641 16645 28
13317 16646 16647 28
13318 16646 16648 28
13319 16646 16649 28
13320 16646 16650 28
13321 16651 16652 28
13322 16651 16653 28
13323 16651 16654 28
13324 16651 16655 28
13325 16656 16657 28
13326 16656 16658 28
13327 16656 16659 28
13328 16656 16660 28
13329 16661 16662 28
13330 16661 16663 28
13331 16661 16664 28
13332 16661 16665 28
13333 16666 16667 28
13334 16666 16668 28
13335 16666 16669 28
13336 16666 16670 28
13337 16671 16672 28
13338 16671 16673 28
13339 16671 16674 28
13340 16671 16675 28
13341 16676 16677 28
13342 16676 16678 28
13343 16676 16679 28
13344 16676 16680 28
13345 16681 16682 28
13346 16681 16683 28
13347 16681 16684 28
13348 16681 16685 28
13349 16686 16687 28
13350 16686 16688 28
13351 16686 16689 28
13352 16686 16690 28
13353 16691 16692 28
13354 16691 16693 28
13355 16691 16694 28
13356 16691 16695 28
13357 16696 16697 28
13358 16696 16698 28
13359 16696 16699 28
13360 16696 16700 28
13361 16701 16702 28
13362 16701 16703 28
13363 16701 16704 28
13364 16701 16705 28
13365 16706 16707 28
13366 16706 16708 28
13367 16706 16709 28
13368 16706 16710 28
13369 16711 16712 28
13370 16711 16713 28
13371 16711 16714 28
13372 16711 16715 28
13373 16716 16717 28
13374 16716 16718 28
13375 16716 16719 28
13376 16716 16720 28
13377 16721 16722 28
13378 16721 16723 28
13379 16721 16724 28
13380 16721 16725 28
13381 16726 16727 28
13382 16726 16728 28
13383 16726 16729 28
13384 16726 16730 28
13385 16731 16732 28
13386 16731 16733 28
13387 16731 16734 28
13388 16731 16735 28
13389 16736 16737 28
13390 16736 16738 28
13391 16736 16739 28
13392 16736 16740 28
13393 16741 16742 28
13394 16741 16743 28
13395 16741 16744 28
13396 16741 16745 28
13397 16746 16747 28
13398 16746 16748 28
13399 16746 16749 28
13400 16746 16750 28
13401 16751 16752 28
13402 16751 16753 28
13403 16751 16754 28
13404 16751 16755 28
13405 16756 16757 28
13406 16756 16758 28
13407 16756 16759 28
13408 16756 16760 28
13409 16761 16762 28
13410 16761 16763 28
13411 16761 16764 28
13412 16761 16765 28
13413 16766 16767 28
13414 16766 16768 28
13415 16766 16769 28
13416 16766 16770 28
13417 16771 16772 28
13418 16771 16773 28
13419 16771 16774 28
13420 16771 16775 28
13421 16776 16777 28
13422 16776 16778 28
13423 16776 16779 28
13424 16776 16780 28
13425 16781 16782 28
13426 16781 16783 28
13427 16781 16784 28
13428 16781 16785 28
13429 16786 16787 28
13430 16786 16788 28
13431 16786 16789 28
13432 16786 16790 28
13433 16791 16792 28
13434 16791 16793 28
13435 16791 16794 28
13436 16791 16795 28
13437 16796 16797 28
13438 16796 16798 28
13439 16796 16799 28
13440 16796 16800 28
13441 16801 16802 28
13442 16801 16803 28
13443 16801 16804 28
13444 16801 16805 28
13445 16806 16807 28
13446 16806 16808 28
13447 16806 16809 28
13448 16806 16810 28
13449 16811 16812 28
13450 16811 16813 28
13451 16811 16814 28
13452 16811 16815 28
13453 16816 16817 28
13454 16816 16818 28
13455 16816 16819 28
13456 16816 16820 28
13457 16821 16822 28
13458 16821 16823 28
13459 16821 16824 28
13460 16821 16825 28
13461 16826 16827 28
13462 16826 16828 28
13463 16826 16829 28
13464 16826 16830 28
13465 16831 16832 28
13466 16831 16833 28
13467 16831 16834 28
13468 16831 16835 28
13469 16836 16837 28
13470 16836 16838 28
13471 16836 16839 28
13472 16836 16840 28
13473 16841 16842 28
13474 16841 16843 28
13475 16841 16844 28
13476 16841 16845 28
13477 16846 16847 28
13478 16846 16848 28
13479 16846 16849 28
13480 16846 16850 28
13481 16851 16852 28
13482 16851 16853 28
13483 16851 16854 28
13484 16851 16855 28
13485 16856 16857 28
13486 16856 16858 28
13487 16856 16859 28
13488 16856 16860 28
13489 16861 16862 28
13490 16861 16863 28
13491 16861 16864 28
13492 16861 16865 28
13493 16866 16867 28
13494 16866 16868 28
13495 16866 16869 28
13496 16866 16870 28
13497 16871 16872 28
13498 16871 16873 28
13499 16871 16874 28
13500 16871 16875 28
13501 16876 16877 28
13502 16876 16878 28
13503 16876 16879 28
13504 16876 16880 28
13505 16881 16882 28
13506 16881 16883 28
13507 16881 16884 28
13508 16881 16885 28
13509 16886 16887 28
13510 16886 16888 28
13511 16886 16889 28
13512 16886 16890 28
13513 16891 16892 28
13514 16891 16893 28
13515 16891 16894 28
13516 16891 16895 28
13517 16896 16897 28
13518 16896 16898 28
13519 16896 16899 28
13520 16896 16900 28
13521 16901 16902 28
13522 16901 16903 28
13523 16901 16904 28
13524 16901 16905 28
13525 16906 16907 28
13526 16906 16908 28
13527 16906 16909 28
13528 16906 16910 28
13529 16911 16912 28
13530 16911 16913 28
13531 16911 16914 28
13532 16911 16915 28
13533 16916 16917 28
13534 16916 16918 28
13535 16916 16919 28
13536 16916 16920 28
13537 16921 16922 28
13538 16921 16923 28
13539 16921 16924 28
13540 16921 16925 28
13541 16926 16927 28
13542 16926 16928 28
13543 16926 16929 28
13544 16926 16930 28
13545 16931 16932 28
13546 16931 16933 28
13547 16931 16934 28
13548 16931 16935 28
13549 16936 16937 28
13550 16936 16938 28
13551 16936 16939 28
13552 16936 16940 28
13553 16941 16942 28
13554 16941 16943 28
13555 16941 16944 28
13556 16941 16945 28
13557 16946 16947 28
13558 16946 16948 28
13559 16946 16949 28
13560 16946 16950 28
13561 16951 16952 28
13562 16951 16953 28
13563 16951 16954 28
13564 16951 16955 28
13565 16956 16957 28
13566 16956 16958 28
13567 16956 16959 28
13568 16956 16960 28
13569 16961 16962 28
13570 16961 16963 28
13571 16961 16964 28
13572 16961 16965 28
13573 16966 16967 28
13574 16966 16968 28
13575 16966 16969 28
13576 16966 16970 28
13577 16971 16972 28
13578 16971 16973 28
13579 16971 16974 28
13580 16971 16975 28
13581 16976 16977 28
13582 16976 16978 28
13583 16976 16979 28
13584 16976 16980 28
13585 16981 16982 28
13586 16981 16983 28
13587 16981 16984 28
13588 16981 16985 28
13589 16986 16987 28
13590 16986 16988 28
13591 16986 16989 28
13592 16986 16990 28
13593 16991 16992 28
13594 16991 16993 28
13595 16991 16994 28
13596 16991 16995 28
13597 16996 16997 28
13598 16996 16998 28
13599 16996 16999 28
13600 16996 17000 28
13601 17001 17002 28
13602 17001 17003 28
13603 17001 17004 28
13604 17001 17005 28
13605 17006 17007 28
13606 17006 17008 28
13607 17006 17009 28
13608 17006 17010 28
13609 17011 17012 28
13610 17011 17013 28
13611 17011 17014 28
13612 17011 17015 28
13613 17016 17017 28
13614 17016 17018 28
13615 17016 17019 28
13616 17016 17020 28
13617 17021 17022 28
13618 17021 17023 28
13619 17021 17024 28
13620 17021 17025 28
13621 17026 17027 28
13622 17026 17028 28
13623 17026 17029 28
13624 17026 17030 28
13625 17031 17032 28
13626 17031 17033 28
13627 17031 17034 28
13628 17031 17035 28
13629 17036 17037 28
13630 17036 17038 28
13631 17036 17039 28
13632 17036 17040 28
13633 17041 17042 28
13634 17041 17043 28
13635 17041 17044 28
13636 17041 17045 28
13637 17046 17047 28
13638 17046 17048 28
13639 17046 17049 28
13640 17046 17050 28
13641 17051 17052 28
13642 17051 17053 28
13643 17051 17054 28
13644 17051 17055 28
13645 17056 17057 28
13646 17056 17058 28
13647 17056 17059 28
13648 17056 17060 28
13649 17061 17062 28
13650 17061 17063 28
13651 17061 17064 28
13652 17061 17065 28
13653 17066 17067 28
13654 17066 17068 28
13655 17066 17069 28
13656 17066 17070 28
13657 17071 17072 28
13658 17071 17073 28
13659 17071 17074 28
13660 17071 17075 28
13661 17076 17077 28
13662 17076 17078 28
13663 17076 17079 28
13664 17076 17080 28
13665 17081 17082 28
13666 17081 17083 28
13667 17081 17084 28
13668 17081 17085 28
13669 17086 17087 28
13670 17086 17088 28
13671 17086 17089 28
13672 17086 17090 28
13673 17091 17092 28
13674 17091 17093 28
13675 17091 17094 28
13676 17091 17095 28
13677 17096 17097 28
13678 17096 17098 28
13679 17096 17099 28
13680 17096 17100 28
13681 17101 17102 28
13682 17101 17103 28
13683 17101 17104 28
13684 17101 17105 28
13685 17106 17107 28
13686 17106 17108 28
13687 17106 17109 28
13688 17106 17110 28
13689 17111 17112 28
13690 17111 17113 28
13691 17111 17114 28
13692 17111 17115 28
13693 17116 17117 28
13694 17116 17118 28
13695 17116 17119 28
13696 17116 17120 28
13697 17121 17122 28
13698 17121 17123 28
13699 17121 17124 28
13700 17121 17125 28
13701 17126 17127 28
13702 17126 17128 28
13703 17126 17129 28
13704 17126 17130 28
13705 17131 17132 28
13706 17131 17133 28
13707 17131 17134 28
13708 17131 17135 28
13709 17136 17137 28
13710 17136 17138 28
13711 17136 17139 28
13712 17136 17140 28
13713 17141 17142 28
13714 17141 17143 28
13715 17141 17144 28
13716 17141 17145 28
13717 17146 17147 28
13718 17146 17148 28
13719 17146 17149 28
13720 17146 17150 28
13721 17151 17152 28
13722 17151 17153 28
13723 17151 17154 28
13724 17151 17155 28
13725 17156 17157 28
13726 17156 17158 28
13727 17156 17159 28
13728 17156 17160 28
13729 17161 17162 28
13730 17161 17163 28
13731 17161 17164 28
13732 17161 17165 28
13733 17166 17167 28
13734 17166 17168 28
13735 17166 17169 28
13736 17166 17170 28
13737 17171 17172 28
13738 17171 17173 28
13739 17171 17174 28
13740 17171 17175 28
13741 17176 17177 28
13742 17176 17178 28
13743 17176 17179 28
13744 17176 17180 28
13745 17181 17182 28
13746 17181 17183 28
13747 17181 17184 28
13748 17181 17185 28
13749 17186 17187 28
13750 17186 17188 28
13751 17186 17189 28
13752 17186 17190 28
13753 17191 17192 28
13754 17191 17193 28
13755 17191 17194 28
13756 17191 17195 28
13757 17196 17197 28
13758 17196 17198 28
13759 17196 17199 28
13760 17196 17200 28
13761 17201 17202 28
13762 17201 17203 28
13763 17201 17204 28
13764 17201 17205 28
13765 17206 17207 28
13766 17206 17208 28
13767 17206 17209 28
13768 17206 17210 28
13769 17211 17212 28
13770 17211 17213 28
13771 17211 17214 28
13772 17211 17215 28
13773 17216 17217 28
13774 17216 17218 28
13775 17216 17219 28
13776 17216 17220 28
13777 17221 17222 28
13778 17221 17223 28
13779 17221 17224 28
13780 17221 17225 28
13781 17226 17227 28
13782 17226 17228 28
13783 17226 17229 28
13784 17226 17230 28
13785 17231 17232 28
13786 17231 17233 28
13787 17231 17234 28
13788 17231 17235 28
13789 17236 17237 28
13790 17236 17238 28
13791 17236 17239 28
13792 17236 17240 28
13793 17241 17242 28
13794 17241 17243 28
13795 17241 17244 28
13796 17241 17245 28
13797 17246 17247 28
13798 17246 17248 28
13799 17246 17249 28
13800 17246 17250 28
13801 17251 17252 28
13802 17251 17253 28
13803 17251 17254 28
13804 17251 17255 28
13805 17256 17257 28
13806 17256 17258 28
13807 17256 17259 28
13808 17256 17260 28
13809 17261 17262 28
13810 17261 17263 28
13811 17261 17264 28
13812 17261 17265 28
13813 17266 17267 28
13814 17266 17268 28
13815 17266 17269 28
13816 17266 17270 28
13817 17271 17272 28
13818 17271 17273 28
13819 17271 17274 28
13820 17271 17275 28
13821 17276 17277 28
13822 17276 17278 28
13823 17276 17279 28
13824 17276 17280 28
13825 17281 17282 28
13826 17281 17283 28
13827 17281 17284 28
13828 17281 17285 28
13829 17286 17287 28
13830 17286 17288 28
13831 17286 17289 28
13832 17286 17290 28
13833 17291 17292 28
13834 17291 17293 28
13835 17291 17294 28
13836 17291 17295 28
13837 17296 17297 28
13838 17296 17298 28
13839 17296 17299 28
13840 17296 17300 28
13841 17301 17302 28
13842 17301 17303 28
13843 17301 17304 28
13844 17301 17305 28
13845 17306 17307 28
13846 17306 17308 28
13847 17306 17309 28
13848 17306 17310 28
13849 17311 17312 28
13850 17311 17313 28
13851 17311 17314 28
13852 17311 17315 28
13853 17316 17317 28
13854 17316 17318 28
13855 17316 17319 28
13856 17316 17320 28
13857 17321 17322 28
13858 17321 17323 28
13859 17321 17324 28
13860 17321 17325 28
13861 17326 17327 28
13862 17326 17328 28
13863 17326 17329 28
13864 17326 17330 28
13865 17331 17332 28
13866 17331 17333 28
13867 17331 17334 28
13868 17331 17335 28
13869 17336 17337 28
13870 17336 17338 28
13871 17336 17339 28
13872 17336 17340 28
13873 17341 17342 28
13874 17341 17343 28
13875 17341 17344 28
13876 17341 17345 28
13877 17346 17347 28
13878 17346 17348 28
13879 17346 17349 28
13880 17346 17350 28
13881 17351 17352 28
13882 17351 17353 28
13883 17351 17354 28
13884 17351 17355 28
13885 17356 17357 28
13886 17356 17358 28
13887 17356 17359 28
13888 17356 17360 28
13889 17361 17362 28
13890 17361 17363 28
13891 17361 17364 28
13892 17361 17365 28
13893 17366 17367 28
13894 17366 17368 28
13895 17366 17369 28
13896 17366 17370 28
13897 17371 17372 28
13898 17371 17373 28
13899 17371 17374 28
13900 17371 17375 28
13901 17376 17377 28
13902 17376 17378 28
13903 17376 17379 28
13904 17376 17380 28
13905 17381 17382 28
13906 17381 17383 28
13907 17381 17384 28
13908 17381 17385 28
13909 17386 17387 28
13910 17386 17388 28
13911 17386 17389 28
13912 17386 17390 28
13913 17391 17392 28
13914 17391 17393 28
13915 17391 17394 28
13916 17391 17395 28
13917 17396 17397 28
13918 17396 17398 28
13919 17396 17399 28
13920 17396 17400 28
13921 17401 17402 28
13922 17401 17403 28
13923 17401 17404 28
13924 17401 17405 28
13925 17406 17407 28
13926 17406 17408 28
13927 17406 17409 28
13928 17406 17410 28
13929 17411 17412 28
13930 17411 17413 28
13931 17411 17414 28
13932 17411 17415 28
13933 17416 17417 28
13934 17416 17418 28
13935 17416 17419 28
13936 17416 17420 28
13937 17421 17422 28
13938 17421 17423 28
13939 17421 17424 28
13940 17421 17425 28
13941 17426 17427 28
13942 17426 17428 28
13943 17426 17429 28
13944 17426 17430 28
13945 17431 17432 28
13946 17431 17433 28
13947 17431 17434 28
13948 17431 17435 28
13949 17436 17437 28
13950 17436 17438 28
13951 17436 17439 28
13952 17436 17440 28
13953 17441 17442 28
13954 17441 17443 28
13955 17441 17444 28
13956 17441 17445 28
13957 17446 17447 28
13958 17446 17448 28
13959 17446 17449 28
13960 17446 17450 28
13961 17451 17452 28
13962 17451 17453 28
13963 17451 17454 28
13964 17451 17455 28
13965 17456 17457 28
13966 17456 17458 28
13967 17456 17459 28
13968 17456 17460 28
13969 17461 17462 28
13970 17461 17463 28
13971 17461 17464 28
13972 17461 17465 28
13973 17466 17467 28
13974 17466 17468 28
13975 17466 17469 28
13976 17466 17470 28
13977 17471 17472 28
13978 17471 17473 28
13979 17471 17474 28
13980 17471 17475 28
13981 17476 17477 28
13982 17476 17478 28
13983 17476 17479 28
13984 17476 17480 28
13985 17481 17482 28
13986 17481 17483 28
13987 17481 17484 28
13988 17481 17485 28
13989 17486 17487 28
13990 17486 17488 28
13991 17486 17489 28
13992 17486 17490 28
13993 17491 17492 28
13994 17491 17493 28
13995 17491 17494 28
13996 17491 17495 28
13997 17496 17497 28
13998 17496 17498 28
13999 17496 17499 28
14000 17496 17500 28
14001 17501 17502 28
14002 17501 17503 28
14003 17501 17504 28
14004 17501 17505 28
14005 17506 17507 28
14006 17506 17508 28
14007 17506 17509 28
14008 17506 17510 28
14009 17511 17512 28
14010 17511 17513 28
14011 17511 17514 28
14012 17511 17515 28
14013 17516 17517 28
14014 17516 17518 28
14015 17516 17519 28
14016 17516 17520 28
14017 17521 17522 28
14018 17521 17523 28
14019 17521 17524 28
14020 17521 17525 28
14021 17526 17527 28
14022 17526 17528 28
14023 17526 17529 28
14024 17526 17530 28
14025 17531 17532 28
14026 17531 17533 28
14027 17531 17534 28
14028 17531 17535 28
14029 17536 17537 28
14030 17536 17538 28
14031 17536 17539 28
14032 17536 17540 28
14033 17541 17542 28
14034 17541 17543 28
14035 17541 17544 28
14036 17541 17545 28
14037 17546 17547 28
14038 17546 17548 28
14039 17546 17549 28
14040 17546 17550 28
14041 17551 17552 28
14042 17551 17553 28
14043 17551 17554 28
14044 17551 17555 28
14045 17556 17557 28
14046 17556 17558 28
14047 17556 17559 28
14048 17556 17560 28
14049 17561 17562 28
14050 17561 17563 28
14051 17561 17564 28
14052 17561 17565 28
14053 17566 17567 28
14054 17566 17568 28
14055 17566 17569 28
14056 17566 17570 28
14057 17571 17572 28
14058 17571 17573 28
14059 17571 17574 28
14060 17571 17575 28
14061 17576 17577 28
14062 17576 17578 28
14063 17576 17579 28
14064 17576 17580 28
14065 17581 17582 28
14066 17581 17583 28
14067 17581 17584 28
14068 17581 17585 28
14069 17586 17587 28
14070 17586 17588 28
14071 17586 17589 28
14072 17586 17590 28
14073 17591 17592 28
14074 17591 17593 28
14075 17591 17594 28
14076 17591 17595 28
14077 17596 17597 28
14078 17596 17598 28
14079 17596 17599 28
14080 17596 17600 28
14081 17601 17602 28
14082 17601 17603 28
14083 17601 17604 28
14084 17601 17605 28
14085 17606 17607 28
14086 17606 17608 28
14087 17606 17609 28
14088 17606 17610 28
14089 17611 17612 28
14090 17611 17613 28
14091 17611 17614 28
14092 17611 17615 28
14093 17616 17617 28
14094 17616 17618 28
14095 17616 17619 28
14096 17616 17620 28
14097 17621 17622 28
14098 17621 17623 28
14099 17621 17624 28
14100 17621 17625 28
14101 17626 17627 28
14102 17626 17628 28
14103 17626 17629 28
14104 17626 17630 28
14105 17631 17632 28
14106 17631 17633 28
14107 17631 17634 28
14108 17631 17635 28
14109 17636 17637 28
14110 17636 17638 28
14111 17636 17639 28
14112 17636 17640 28
14113 17641 17642 28
14114 17641 17643 28
14115 17641 17644 28
14116 17641 17645 28
14117 17646 17647 28
14118 17646 17648 28
14119 17646 17649 28
14120 17646 17650 28
14121 17651 17652 28
14122 17651 17653 28
14123 17651 17654 28
14124 17651 17655 28
14125 17656 17657 28
14126 17656 17658 28
14127 17656 17659 28
14128 17656 17660 28
14129 17661 17662 28
14130 17661 17663 28
14131 17661 17664 28
14132 17661 17665 28
14133 17666 17667 28
14134 17666 17668 28
14135 17666 17669 28
14136 17666 17670 28
14137 17671 17672 28
14138 17671 17673 28
14139 17671 17674 28
14140 17671 17675 28
14141 17676 17677 28
14142 17676 17678 28
14143 17676 17679 28
14144 17676 17680 28
14145 17681 17682 28
14146 17681 17683 28
14147 17681 17684 28
14148 17681 17685 28
14149 17686 17687 28
14150 17686 17688 28
14151 17686 17689 28
14152 17686 17690 28
14153 17691 17692 28
14154 17691 17693 28
14155 17691 17694 28
14156 17691 17695 28
14157 17696 17697 28
14158 17696 17698 28
14159 17696 17699 28
14160 17696 17700 28
14161 17701 17702 28
14162 17701 17703 28
14163 17701 17704 28
14164 17701 17705 28
14165 17706 17707 28
14166 17706 17708 28
14167 17706 17709 28
14168 17706 17710 28
14169 17711 17712 28
14170 17711 17713 28
14171 17711 17714 28
14172 17711 17715 28
14173 17716 17717 28
14174 17716 17718 28
14175 17716 17719 28
14176 17716 17720 28
14177 17721 17722 28
14178 17721 17723 28
14179 17721 17724 28
14180 17721 17725 28
14181 17726 17727 28
14182 17726 17728 28
14183 17726 17729 28
14184 17726 17730 28
14185 17731 17732 28
14186 17731 17733 28
14187 17731 17734 28
14188 17731 17735 28
14189 17736 17737 28
14190 17736 17738 28
14191 17736 17739 28
14192 17736 17740 28
14193 17741 17742 28
14194 17741 17743 28
14195 17741 17744 28
14196 17741 17745 28
14197 17746 17747 28
14198 17746 17748 28
14199 17746 17749 28
14200 17746 17750 28
14201 17751 17752 28
14202 17751 17753 28
14203 17751 17754 28
14204 17751 17755 28
14205 17756 17757 28
14206 17756 17758 28
14207 17756 17759 28
14208 17756 17760 28
14209 17761 17762 28
14210 17761 17763 28
14211 17761 17764 28
14212 17761 17765 28
14213 17766 17767 28
14214 17766 17768 28
14215 17766 17769 28
14216 17766 17770 28
14217 17771 17772 28
14218 17771 17773 28
14219 17771 17774 28
14220 17771 17775 28
14221 17776 17777 28
14222 17776 17778 28
14223 17776 17779 28
14224 17776 17780 28
14225 17781 17782 28
14226 17781 17783 28
14227 17781 17784 28
14228 17781 17785 28
14229 17786 17787 28
14230 17786 17788 28
14231 17786 17789 28
14232 17786 17790 28
14233 17791 17792 28
14234 17791 17793 28
14235 17791 17794 28
14236 17791 17795 28
14237 17796 17797 28
14238 17796 17798 28
14239 17796 17799 28
14240 17796 17800 28
14241 17801 17802 28
14242 17801 17803 28
14243 17801 17804 28
14244 17801 17805 28
14245 17806 17807 28
14246 17806 17808 28
14247 17806 17809 28
14248 17806 17810 28
14249 17811 17812 28
14250 17811 17813 28
14251 17811 17814 28
14252 17811 17815 28
14253 17816 17817 28
14254 17816 17818 28
14255 17816 17819 28
14256 17816 17820 28
14257 17821 17822 28
14258 17821 17823 28
14259 17821 17824 28
14260 17821 17825 28
14261 17826 17827 28
14262 17826 17828 28
14263 17826 17829 28
14264 17826 17830 28
14265 17831 17832 28
14266 17831 17833 28
14267 17831 17834 28
14268 17831 17835 28
14269 17836 17837 28
14270 17836 17838 28
14271 17836 17839 28
14272 17836 17840 28
14273 17841 17842 28
14274 17841 17843 28
14275 17841 17844 28
14276 17841 17845 28
14277 17846 17847 28
14278 17846 17848 28
14279 17846 17849 28
14280 17846 17850 28
14281 17851 17852 28
14282 17851 17853 28
14283 17851 17854 28
14284 17851 17855 28
14285 17856 17857 28
14286 17856 17858 28
14287 17856 17859 28
14288 17856 17860 28
14289 17861 17862 28
14290 17861 17863 28
14291 17861 17864 28
14292 17861 17865 28
14293 17866 17867 28
14294 17866 17868 28
14295 17866 17869 28
14296 17866 17870 28
14297 17871 17872 28
14298 17871 17873 28
14299 17871 17874 28
14300 17871 17875 28
14301 17876 17877 28
14302 17876 17878 28
14303 17876 17879 28
14304 17876 17880 28
14305 17881 17882 28
14306 17881 17883 28
14307 17881 17884 28
14308 17881 17885 28
14309 17886 17887 28
14310 17886 17888 28
14311 17886 17889 28
14312 17886 17890 28
14313 17891 17892 28
14314 17891 17893 28
14315 17891 17894 28
14316 17891 17895 28
14317 17896 17897 28
14318 17896 17898 28
14319 17896 17899 28
14320 17896 17900 28
14321 17901 17902 28
14322 17901 17903 28
14323 17901 17904 28
14324 17901 17905 28
14325 17906 17907 28
14326 17906 17908 28
14327 17906 17909 28
14328 17906 17910 28
14329 17911 17912 28
14330 17911 17913 28
14331 17911 17914 28
14332 17911 17915 28
14333 17916 17917 28
14334 17916 17918 28
14335 17916 17919 28
14336 17916 17920 28
14337 17921 17922 28
14338 17921 17923 28
14339 17921 17924 28
14340 17921 17925 28
14341 17926 17927 28
14342 17926 17928 28
14343 17926 17929 28
14344 17926 17930 28
14345 17931 17932 28
14346 17931 17933 28
14347 17931 17934 28
14348 17931 17935 28
14349 17936 17937 28
14350 17936 17938 28
14351 17936 17939 28
14352 17936 17940 28
14353 17941 17942 28
14354 17941 17943 28
14355 17941 17944 28
14356 17941 17945 28
14357 17946 17947 28
14358 17946 17948 28
14359 17946 17949 28
14360 17946 17950 28
14361 17951 17952 28
14362 17951 17953 28
14363 17951 17954 28
14364 17951 17955 28
14365 17956 17957 28
14366 17956 17958 28
14367 17956 17959 28
14368 17956 17960 28
14369 17961 17962 28
14370 17961 17963 28
14371 17961 17964 28
14372 17961 17965 28
14373 17966 17967 28
14374 17966 17968 28
14375 17966 17969 28
14376 17966 17970 28
14377 17971 17972 28
14378 17971 17973 28
14379 17971 17974 28
14380 17971 17975 28
14381 17976 17977 28
14382 17976 17978 28
14383 17976 17979 28
14384 17976 17980 28
14385 17981 17982 28
14386 17981 17983 28
14387 17981 17984 28
14388 17981 17985 28
14389 17986 17987 28
14390 17986 17988 28
14391 17986 17989 28
14392 17986 17990 28
14393 17991 17992 28
14394 17991 17993 28
14395 17991 17994 28
14396 17991 17995 28
14397 17996 17997 28
14398 17996 17998 28
14399 17996 17999 28
14400 17996 18000 28
14401 18001 18002 28
14402 18001 18003 28
14403 18001 18004 28
14404 18001 18005 28
14405 18006 18007 28
14406 18006 18008 28
14407 18006 18009 28
14408 18006 18010 28
14409 18011 18012 28
14410 18011 18013 28
14411 18011 18014 28
14412 18011 18015 28
14413 18016 18017 28
14414 18016 18018 28
14415 18016 18019 28
14416 18016 18020 28
14417 18021 18022 28
14418 18021 18023 28
14419 18021 18024 28
14420 18021 18025 28
14421 18026 18027 28
14422 18026 18028 28
14423 18026 18029 28
14424 18026 18030 28
14425 18031 18032 28
14426 18031 18033 28
14427 18031 18034 28
14428 18031 18035 28
14429 18036 18037 28
14430 18036 18038 28
14431 18036 18039 28
14432 18036 18040 28
14433 18041 18042 28
14434 18041 18043 28
14435 18041 18044 28
14436 18041 18045 28
14437 18046 18047 28
14438 18046 18048 28
14439 18046 18049 28
14440 18046 18050 28
14441 18051 18052 28
14442 18051 18053 28
14443 18051 18054 28
14444 18051 18055 28
14445 18056 18057 28
14446 18056 18058 28
14447 18056 18059 28
14448 18056 18060 28
14449 18061 18062 28
14450 18061 18063 28
14451 18061 18064 28
14452 18061 18065 28
14453 18066 18067 28
14454 18066 18068 28
14455 18066 18069 28
14456 18066 18070 28
14457 18071 18072 28
14458 18071 18073 28
14459 18071 18074 28
14460 18071 18075 28
14461 18076 18077 28
14462 18076 18078 28
14463 18076 18079 28
14464 18076 18080 28
14465 18081 18082 28
14466 18081 18083 28
14467 18081 18084 28
14468 18081 18085 28
14469 18086 18087 28
14470 18086 18088 28
14471 18086 18089 28
14472 18086 18090 28
14473 18091 18092 28
14474 18091 18093 28
14475 18091 18094 28
14476 18091 18095 28
14477 18096 18097 28
14478 18096 18098 28
14479 18096 18099 28
14480 18096 18100 28
14481 18101 18102 28
14482 18101 18103 28
14483 18101 18104 28
14484 18101 18105 28
14485 18106 18107 28
14486 18106 18108 28
14487 18106 18109 28
14488 18106 18110 28
14489 18111 18112 28
14490 18111 18113 28
14491 18111 18114 28
14492 18111 18115 28
14493 18116 18117 28
14494 18116 18118 28
14495 18116 18119 28
14496 18116 18120 28
14497 18121 18122 28
14498 18121 18123 28
14499 18121 18124 28
14500 18121 18125 28
14501 18126 18127 28
14502 18126 18128 28
14503 18126 18129 28
14504 18126 18130 28
14505 18131 18132 28
14506 18131 18133 28
14507 18131 18134 28
14508 18131 18135 28
14509 18136 18137 28
14510 18136 18138 28
14511 18136 18139 28
14512 18136 18140 28
14513 18141 18142 28
14514 18141 18143 28
14515 18141 18144 28
14516 18141 18145 28
14517 18146 18147 28
14518 18146 18148 28
14519 18146 18149 28
14520 18146 18150 28
14521 18151 18152 28
14522 18151 18153 28
14523 18151 18154 28
14524 18151 18155 28
14525 18156 18157 28
14526 18156 18158 28
14527 18156 18159 28
14528 18156 18160 28
14529 18161 18162 28
14530 18161 18163 28
14531 18161 18164 28
14532 18161 18165 28
14533 18166 18167 28
14534 18166 18168 28
14535 18166 18169 28
14536 18166 18170 28
14537 18171 18172 28
14538 18171 18173 28
14539 18171 18174 28
14540 18171 18175 28
14541 18176 18177 28
14542 18176 18178 28
14543 18176 18179 28
14544 18176 18180 28
14545 18181 18182 28
14546 18181 18183 28
14547 18181 18184 28
14548 18181 18185 28
14549 18186 18187 28
14550 18186 18188 28
14551 18186 18189 28
14552 18186 18190 28
14553 18191 18192 28
14554 18191 18193 28
14555 18191 18194 28
14556 18191 18195 28
14557 18196 18197 28
14558 18196 18198 28
14559 18196 18199 28
14560 18196 18200 28
14561 18201 18202 28
14562 18201 18203 28
14563 18201 18204 28
14564 18201 18205 28
14565 18206 18207 28
14566 18206 18208 28
14567 18206 18209 28
14568 18206 18210 28
14569 18211 18212 28
14570 18211 18213 28
14571 18211 18214 28
14572 18211 18215 28
14573 18216 18217 28
14574 18216 18218 28
14575 18216 18219 28
14576 18216 18220 28
14577 18221 18222 28
14578 18221 18223 28
14579 18221 18224 28
14580 18221 18225 28
14581 18226 18227 28
14582 18226 18228 28
14583 18226 18229 28
14584 18226 18230 28
14585 18231 18232 28
14586 18231 18233 28
14587 18231 18234 28
14588 18231 18235 28
14589 18236 18237 28
14590 18236 18238 28
14591 18236 18239 28
14592 18236 18240 28
14593 18241 18242 28
14594 18241 18243 28
14595 18241 18244 28
14596 18241 18245 28
14597 18246 18247 28
14598 18246 18248 28
14599 18246 18249 28
14600 18246 18250 28
14601 18251 18252 28
14602 18251 18253 28
14603 18251 18254 28
14604 18251 18255 28
14605 18256 18257 28
14606 18256 18258 28
14607 18256 18259 28
14608 18256 18260 28
14609 18261 18262 28
14610 18261 18263 28
14611 18261 18264 28
14612 18261 18265 28
14613 18266 18267 28
14614 18266 18268 28
14615 18266 18269 28
14616 18266 18270 28
14617 18271 18272 28
14618 18271 18273 28
14619 18271 18274 28
14620 18271 18275 28
14621 18276 18277 28
14622 18276 18278 28
14623 18276 18279 28
14624 18276 18280 28
14625 18281 18282 28
14626 18281 18283 28
14627 18281 18284 28
14628 18281 18285 28
14629 18286 18287 28
14630 18286 18288 28
14631 18286 18289 28
14632 18286 18290 28
14633 18291 18292 28
14634 18291 18293 28
14635 18291 18294 28
14636 18291 18295 28
14637 18296 18297 28
14638 18296 18298 28
14639 18296 18299 28
14640 18296 18300 28
14641 18301 18302 28
14642 18301 18303 28
14643 18301 18304 28
14644 18301 18305 28
14645 18306 18307 28
14646 18306 18308 28
14647 18306 18309 28
14648 18306 18310 28
14649 18311 18312 28
14650 18311 18313 28
14651 18311 18314 28
14652 18311 18315 28
14653 18316 18317 28
14654 18316 18318 28
14655 18316 18319 28
14656 18316 18320 28
14657 18321 18322 28
14658 18321 18323 28
14659 18321 18324 28
14660 18321 18325 28
14661 18326 18327 28
14662 18326 18328 28
14663 18326 18329 28
14664 18326 18330 28
14665 18331 18332 28
14666 18331 18333 28
14667 18331 18334 28
14668 18331 18335 28
14669 18336 18337 28
14670 18336 18338 28
14671 18336 18339 28
14672 18336 18340 28
14673 18341 18342 28
14674 18341 18343 28
14675 18341 18344 28
14676 18341 18345 28
14677 18346 18347 28
14678 18346 18348 28
14679 18346 18349 28
14680 18346 18350 28
14681 18351 18352 28
14682 18351 18353 28
14683 18351 18354 28
14684 18351 18355 28
14685 18356 18357 28
14686 18356 18358 28
14687 18356 18359 28
14688 18356 18360 28
14689 18361 18362 28
14690 18361 18363 28
14691 18361 18364 28
14692 18361 18365 28
14693 18366 18367 28
14694 18366 18368 28
14695 18366 18369 28
14696 18366 18370 28
14697 18371 18372 28
14698 18371 18373 28
14699 18371 18374 28
14700 18371 18375 28
14701 18376 18377 28
14702 18376 18378 28
14703 18376 18379 28
14704 18376 18380 28
14705 18381 18382 28
14706 18381 18383 28
14707 18381 18384 28
14708 18381 18385 28
14709 18386 18387 28
14710 18386 18388 28
14711 18386 18389 28
14712 18386 18390 28
14713 18391 18392 28
14714 18391 18393 28
14715 18391 18394 28
14716 18391 18395 28
14717 18396 18397 28
14718 18396 18398 28
14719 18396 18399 28
14720 18396 18400 28
14721 18401 18402 28
14722 18401 18403 28
14723 18401 18404 28
14724 18401 18405 28
14725 18406 18407 28
14726 18406 18408 28
14727 18406 18409 28
14728 18406 18410 28
14729 18411 18412 28
14730 18411 18413 28
14731 18411 18414 28
14732 18411 18415 28
14733 18416 18417 28
14734 18416 18418 28
14735 18416 18419 28
14736 18416 18420 28
14737 18421 18422 28
14738 18421 18423 28
14739 18421 18424 28
14740 18421 18425 28
14741 18426 18427 28
14742 18426 18428 28
14743 18426 18429 28
14744 18426 18430 28
14745 18431 18432 28
14746 18431 18433 28
14747 18431 18434 28
14748 18431 18435 28
14749 18436 18437 28
14750 18436 18438 28
14751 18436 18439 28
14752 18436 18440 28
14753 18441 18442 28
14754 18441 18443 28
14755 18441 18444 28
14756 18441 18445 28
14757 18446 18447 28
14758 18446 18448 28
14759 18446 18449 28
14760 18446 18450 28
14761 18451 18452 28
14762 18451 18453 28
14763 18451 18454 28
14764 18451 18455 28
14765 18456 18457 28
14766 18456 18458 28
14767 18456 18459 28
14768 18456 18460 28
14769 18461 18462 28
14770 18461 18463 28
14771 18461 18464 28
14772 18461 18465 28
14773 18466 18467 28
14774 18466 18468 28
14775 18466 18469 28
14776 18466 18470 28
14777 18471 18472 28
14778 18471 18473 28
14779 18471 18474 28
14780 18471 18475 28
14781 18476 18477 28
14782 18476 18478 28
14783 18476 18479 28
14784 18476 18480 28
14785 18481 18482 28
14786 18481 18483 28
14787 18481 18484 28
14788 18481 18485 28
14789 18486 18487 28
14790 18486 18488 28
14791 18486 18489 28
14792 18486 18490 28
14793 18491 18492 28
14794 18491 18493 28
14795 18491 18494 28
14796 18491 18495 28
14797 18496 18497 28
14798 18496 18498 28
14799 18496 18499 28
14800 18496 18500 28
14801 18501 18502 28
14802 18501 18503 28
14803 18501 18504 28
14804 18501 18505 28
14805 18506 18507 28
14806 18506 18508 28
14807 18506 18509 28
14808 18506 18510 28
14809 18511 18512 28
14810 18511 18513 28
14811 18511 18514 28
14812 18511 18515 28
14813 18516 18517 28
14814 18516 18518 28
14815 18516 18519 28
14816 18516 18520 28
14817 18521 18522 28
14818 18521 18523 28
14819 18521 18524 28
14820 18521 18525 28
14821 18526 18527 28
14822 18526 18528 28
14823 18526 18529 28
14824 18526 18530 28
14825 18531 18532 28
14826 18531 18533 28
14827 18531 18534 28
14828 18531 18535 28
14829 18536 18537 28
14830 18536 18538 28
14831 18536 18539 28
14832 18536 18540 28
14833 18541 18542 28
14834 18541 18543 28
14835 18541 18544 28
14836 18541 18545 28
14837 18546 18547 28
14838 18546 18548 28
14839 18546 18549 28
14840 18546 18550 28
14841 18551 18552 28
14842 18551 18553 28
14843 18551 18554 28
14844 18551 18555 28
14845 18556 18557 28
14846 18556 18558 28
14847 18556 18559 28
14848 18556 18560 28
14849 18561 18562 28
14850 18561 18563 28
14851 18561 18564 28
14852 18561 18565 28
14853 18566 18567 28
14854 18566 18568 28
14855 18566 18569 28
14856 18566 18570 28
14857 18571 18572 28
14858 18571 18573 28
14859 18571 18574 28
14860 18571 18575 28
14861 18576 18577 28
14862 18576 18578 28
14863 18576 18579 28
14864 18576 18580 28
14865 18581 18582 28
14866 18581 18583 28
14867 18581 18584 28
14868 18581 18585 28
14869 18586 18587 28
14870 18586 18588 28
14871 18586 18589 28
14872 18586 18590 28
14873 18591 18592 28
14874 18591 18593 28
14875 18591 18594 28
14876 18591 18595 28
14877 18596 18597 28
14878 18596 18598 28
14879 18596 18599 28
14880 18596 18600 28
14881 18601 18602 28
14882 18601 18603 28
14883 18601 18604 28
14884 18601 18605 28
14885 18606 18607 28
14886 18606 18608 28
14887 18606 18609 28
14888 18606 18610 28
14889 18611 18612 28
14890 18611 18613 28
14891 18611 18614 28
14892 18611 18615 28
14893 18616 18617 28
14894 18616 18618 28
14895 18616 18619 28
14896 18616 18620 28
14897 18621 18622 28
14898 18621 18623 28
14899 18621 18624 28
14900 18621 18625 28
14901 18626 18627 28
14902 18626 18628 28
14903 18626 18629 28
14904 18626 18630 28
14905 18631 18632 28
14906 18631 18633 28
14907 18631 18634 28
14908 18631 18635 28
14909 18636 18637 28
14910 18636 18638 28
14911 18636 18639 28
14912 18636 18640 28
14913 18641 18642 28
14914 18641 18643 28
14915 18641 18644 28
14916 18641 18645 28
14917 18646 18647 28
14918 18646 18648 28
14919 18646 18649 28
14920 18646 18650 28
14921 18651 18652 28
14922 18651 18653 28
14923 18651 18654 28
14924 18651 18655 28
14925 18656 18657 28
14926 18656 18658 28
14927 18656 18659 28
14928 18656 18660 28
14929 18661 18662 28
14930 18661 18663 28
14931 18661 18664 28
14932 18661 18665 28
14933 18666 18667 28
14934 18666 18668 28
14935 18666 18669 28
14936 18666 18670 28
14937 18671 18672 28
14938 18671 18673 28
14939 18671 18674 28
14940 18671 18675 28
14941 18676 18677 28
14942 18676 18678 28
14943 18676 18679 28
14944 18676 18680 28
14945 18681 18682 28
14946 18681 18683 28
14947 18681 18684 28
14948 18681 18685 28
14949 18686 18687 28
14950 18686 18688 28
14951 18686 18689 28
14952 18686 18690 28
14953 18691 18692 28
14954 18691 18693 28
14955 18691 18694 28
14956 18691 18695 28
14957 18696 18697 28
14958 18696 18698 28
14959 18696 18699 28
14960 18696 18700 28
14961 18701 18702 28
14962 18701 18703 28
14963 18701 18704 28
14964 18701 18705 28
14965 18706 18707 28
14966 18706 18708 28
14967 18706 18709 28
14968 18706 18710 28
14969 18711 18712 28
14970 18711 18713 28
14971 18711 18714 28
14972 18711 18715 28
14973 18716 18717 28
14974 18716 18718 28
14975 18716 18719 28
14976 18716 18720 28
14977 18721 18722 28
14978 18721 18723 28
14979 18721 18724 28
14980 18721 18725 28
14981 18726 18727 28
14982 18726 18728 28
14983 18726 18729 28
14984 18726 18730 28
14985 18731 18732 28
14986 18731 18733 28
14987 18731 18734 28
14988 18731 18735 28
14989 18736 18737 28
14990 18736 18738 28
14991 18736 18739 28
14992 18736 18740 28
14993 18741 18742 28
14994 18741 18743 28
14995 18741 18744 28
14996 18741 18745 28
14997 18746 18747 28
14998 18746 18748 28
14999 18746 18749 28
15000 18746 18750 28
15001 18751 18752 28
15002 18751 18753 28
15003 18751 18754 28
15004 18751 18755 28
15005 18756 18757 28
15006 18756 18758 28
15007 18756 18759 28
15008 18756 18760 28
15009 18761 18762 28
15010 18761 18763 28
15011 18761 18764 28
15012 18761 18765 28
15013 18766 18767 28
15014 18766 18768 28
15015 18766 18769 28
15016 18766 18770 28
15017 18771 18772 28
15018 18771 18773 28
15019 18771 18774 28
15020 18771 18775 28
15021 18776 18777 28
15022 18776 18778 28
15023 18776 18779 28
15024 18776 18780 28
15025 18781 18782 28
15026 18781 18783 28
15027 18781 18784 28
15028 18781 18785 28
15029 18786 18787 28
15030 18786 18788 28
15031 18786 18789 28
15032 18786 18790 28
15033 18791 18792 28
15034 18791 18793 28
15035 18791 18794 28
15036 18791 18795 28
15037 18796 18797 28
15038 18796 18798 28
15039 18796 18799 28
15040 18796 18800 28
15041 18801 18802 28
15042 18801 18803 28
15043 18801 18804 28
15044 18801 18805 28
15045 18806 18807 28
15046 18806 18808 28
15047 18806 18809 28
15048 18806 18810 28
15049 18811 18812 28
15050 18811 18813 28
15051 18811 18814 28
15052 18811 18815 28
15053 18816 18817 28
15054 18816 18818 28
15055 18816 18819 28
15056 18816 18820 28
15057 18821 18822 28
15058 18821 18823 28
15059 18821 18824 28
15060 18821 18825 28
15061 18826 18827 28
15062 18826 18828 28
15063 18826 18829 28
15064 18826 18830 28
15065 18831 18832 28
15066 18831 18833 28
15067 18831 18834 28
15068 18831 18835 28
15069 18836 18837 28
15070 18836 18838 28
15071 18836 18839 28
15072 18836 18840 28
15073 18841 18842 28
15074 18841 18843 28
15075 18841 18844 28
15076 18841 18845 28
15077 18846 18847 28
15078 18846 18848 28
15079 18846 18849 28
15080 18846 18850 28
15081 18851 18852 28
15082 18851 18853 28
15083 18851 18854 28
15084 18851 18855 28
15085 18856 18857 28
15086 18856 18858 28
15087 18856 18859 28
15088 18856 18860 28
15089 18861 18862 28
15090 18861 18863 28
15091 18861 18864 28
15092 18861 18865 28
15093 18866 18867 28
15094 18866 18868 28
15095 18866 18869 28
15096 18866 18870 28
15097 18871 18872 28
15098 18871 18873 28
15099 18871 18874 28
15100 18871 18875 28
15101 18876 18877 28
15102 18876 18878 28
15103 18876 18879 28
15104 18876 18880 28
15105 18881 18882 28
15106 18881 18883 28
15107 18881 18884 28
15108 18881 18885 28
15109 18886 18887 28
15110 18886 18888 28
15111 18886 18889 28
15112 18886 18890 28
15113 18891 18892 28
15114 18891 18893 28
15115 18891 18894 28
15116 18891 18895 28
15117 18896 18897 28
15118 18896 18898 28
15119 18896 18899 28
15120 18896 18900 28
15121 18901 18902 28
15122 18901 18903 28
15123 18901 18904 28
15124 18901 18905 28
15125 18906 18907 28
15126 18906 18908 28
15127 18906 18909 28
15128 18906 18910 28
15129 18911 18912 28
15130 18911 18913 28
15131 18911 18914 28
15132 18911 18915 28
15133 18916 18917 28
15134 18916 18918 28
15135 18916 18919 28
15136 18916 18920 28
15137 18921 18922 28
15138 18921 18923 28
15139 18921 18924 28
15140 18921 18925 28
15141 18926 18927 28
15142 18926 18928 28
15143 18926 18929 28
15144 18926 18930 28
15145 18931 18932 28
15146 18931 18933 28
15147 18931 18934 28
15148 18931 18935 28
15149 18936 18937 28
15150 18936 18938 28
15151 18936 18939 28
15152 18936 18940 28
15153 18941 18942 28
15154 18941 18943 28
15155 18941 18944 28
15156 18941 18945 28
15157 18946 18947 28
15158 18946 18948 28
15159 18946 18949 28
15160 18946 18950 28
15161 18951 18952 28
15162 18951 18953 28
15163 18951 18954 28
15164 18951 18955 28
15165 18956 18957 28
15166 18956 18958 28
15167 18956 18959 28
15168 18956 18960 28
15169 18961 18962 28
15170 18961 18963 28
15171 18961 18964 28
15172 18961 18965 28
15173 18966 18967 28
15174 18966 18968 28
15175 18966 18969 28
15176 18966 18970 28
15177 18971 18972 28
15178 18971 18973 28
15179 18971 18974 28
15180 18971 18975 28
15181 18976 18977 28
15182 18976 18978 28
15183 18976 18979 28
15184 18976 18980 28
15185 18981 18982 28
15186 18981 18983 28
15187 18981 18984 28
15188 18981 18985 28
15189 18986 18987 28
15190 18986 18988 28
15191 18986 18989 28
15192 18986 18990 28
15193 18991 18992 28
15194 18991 18993 28
15195 18991 18994 28
15196 18991 18995 28
15197 18996 18997 28
15198 18996 18998 28
15199 18996 18999 28
15200 18996 19000 28
15201 19001 19002 28
15202 19001 19003 28
15203 19001 19004 28
15204 19001 19005 28
15205 19006 19007 28
15206 19006 19008 28
15207 19006 19009 28
15208 19006 19010 28
15209 19011 19012 28
15210 19011 19013 28
15211 19011 19014 28
15212 19011 19015 28
15213 19016 19017 28
15214 19016 19018 28
15215 19016 19019 28
15216 19016 19020 28
15217 19021 19022 28
15218 19021 19023 28
15219 19021 19024 28
15220 19021 19025 28
15221 19026 19027 28
15222 19026 19028 28
15223 19026 19029 28
15224 19026 19030 28
15225 19031 19032 28
15226 19031 19033 28
15227 19031 19034 28
15228 19031 19035 28
15229 19036 19037 28
15230 19036 19038 28
15231 19036 19039 28
15232 19036 19040 28
15233 19041 19042 28
15234 19041 19043 28
15235 19041 19044 28
15236 19041 19045 28
15237 19046 19047 28
15238 19046 19048 28
15239 19046 19049 28
15240 19046 19050 28
15241 19051 19052 28
15242 19051 19053 28
15243 19051 19054 28
15244 19051 19055 28
15245 19056 19057 28
15246 19056 19058 28
15247 19056 19059 28
15248 19056 19060 28
15249 19061 19062 28
15250 19061 19063 28
15251 19061 19064 28
15252 19061 19065 28
15253 19066 19067 28
15254 19066 19068 28
15255 19066 19069 28
15256 19066 19070 28
15257 19071 19072 28
15258 19071 19073 28
15259 19071 19074 28
15260 19071 19075 28
15261 19076 19077 28
15262 19076 19078 28
15263 19076 19079 28
15264 19076 19080 28
15265 19081 19082 28
15266 19081 19083 28
15267 19081 19084 28
15268 19081 19085 28
15269 19086 19087 28
15270 19086 19088 28
15271 19086 19089 28
15272 19086 19090 28
15273 19091 19092 28
15274 19091 19093 28
15275 19091 19094 28
15276 19091 19095 28
15277 19096 19097 28
15278 19096 19098 28
15279 19096 19099 28
15280 19096 19100 28
15281 19101 19102 28
15282 19101 19103 28
15283 19101 19104 28
15284 19101 19105 28
15285 19106 19107 28
15286 19106 19108 28
15287 19106 19109 28
15288 19106 19110 28
15289 19111 19112 28
15290 19111 19113 28
15291 19111 19114 28
15292 19111 19115 28
15293 19116 19117 28
15294 19116 19118 28
15295 19116 19119 28
15296 19116 19120 28
15297 19121 19122 28
15298 19121 19123 28
15299 19121 19124 28
15300 19121 19125 28
15301 19126 19127 28
15302 19126 19128 28
15303 19126 19129 28
15304 19126 19130 28
15305 19131 19132 28
15306 19131 19133 28
15307 19131 19134 28
15308 19131 19135 28
15309 19136 19137 28
15310 19136 19138 28
15311 19136 19139 28
15312 19136 19140 28
15313 19141 19142 28
15314 19141 19143 28
15315 19141 19144 28
15316 19141 19145 28
15317 19146 19147 28
15318 19146 19148 28
15319 19146 19149 28
15320 19146 19150 28
15321 19151 19152 28
15322 19151 19153 28
15323 19151 19154 28
15324 19151 19155 28
15325 19156 19157 28
15326 19156 19158 28
15327 19156 19159 28
15328 19156 19160 28
15329 19161 19162 28
15330 19161 19163 28
15331 19161 19164 28
15332 19161 19165 28
15333 19166 19167 28
15334 19166 19168 28
15335 19166 19169 28
15336 19166 19170 28
15337 19171 19172 28
15338 19171 19173 28
15339 19171 19174 28
15340 19171 19175 28
15341 19176 19177 28
15342 19176 19178 28
15343 19176 19179 28
15344 19176 19180 28
15345 19181 19182 28
15346 19181 19183 28
15347 19181 19184 28
15348 19181 19185 28
15349 19186 19187 28
15350 19186 19188 28
15351 19186 19189 28
15352 19186 19190 28
15353 19191 19192 28
15354 19191 19193 28
15355 19191 19194 28
15356 19191 19195 28
15357 19196 19197 28
15358 19196 19198 28
15359 19196 19199 28
15360 19196 19200 28
15361 19201 19202 28
15362 19201 19203 28
15363 19201 19204 28
15364 19201 19205 28
15365 19206 19207 28
15366 19206 19208 28
15367 19206 19209 28
15368 19206 19210 28
15369 19211 19212 28
15370 19211 19213 28
15371 19211 19214 28
15372 19211 19215 28
15373 19216 19217 28
15374 19216 19218 28
15375 19216 19219 28
15376 19216 19220 28
15377 19221 19222 28
15378 19221 19223 28
15379 19221 19224 28
15380 19221 19225 28
15381 19226 19227 28
15382 19226 19228 28
15383 19226 19229 28
15384 19226 19230 28
15385 19231 19232 28
15386 19231 19233 28
15387 19231 19234 28
15388 19231 19235 28
15389 19236 19237 28
15390 19236 19238 28
15391 19236 19239 28
15392 19236 19240 28
15393 19241 19242 28
15394 19241 19243 28
15395 19241 19244 28
15396 19241 19245 28
15397 19246 19247 28
15398 19246 19248 28
15399 19246 19249 28
15400 19246 19250 28
15401 19251 19252 28
15402 19251 19253 28
15403 19251 19254 28
15404 19251 19255 28
15405 19256 19257 28
15406 19256 19258 28
15407 19256 19259 28
15408 19256 19260 28
15409 19261 19262 28
15410 19261 19263 28
15411 19261 19264 28
15412 19261 19265 28
15413 19266 19267 28
15414 19266 19268 28
15415 19266 19269 28
15416 19266 19270 28
15417 19271 19272 28
15418 19271 19273 28
15419 19271 19274 28
15420 19271 19275 28
15421 19276 19277 28
15422 19276 19278 28
15423 19276 19279 28
15424 19276 19280 28
15425 19281 19282 28
15426 19281 19283 28
15427 19281 19284 28
15428 19281 19285 28
15429 19286 19287 28
15430 19286 19288 28
15431 19286 19289 28
15432 19286 19290 28
15433 19291 19292 28
15434 19291 19293 28
15435 19291 19294 28
15436 19291 19295 28
15437 19296 19297 28
15438 19296 19298 28
15439 19296 19299 28
15440 19296 19300 28
15441 19301 19302 28
15442 19301 19303 28
15443 19301 19304 28
15444 19301 19305 28
15445 19306 19307 28
15446 19306 19308 28
15447 19306 19309 28
15448 19306 19310 28
15449 19311 19312 28
15450 19311 19313 28
15451 19311 19314 28
15452 19311 19315 28
15453 19316 19317 28
15454 19316 19318 28
15455 19316 19319 28
15456 19316 19320 28
15457 19321 19322 28
15458 19321 19323 28
15459 19321 19324 28
15460 19321 19325 28
15461 19326 19327 28
15462 19326 19328 28
15463 19326 19329 28
15464 19326 19330 28
15465 19331 19332 28
15466 19331 19333 28
15467 19331 19334 28
15468 19331 19335 28
15469 19336 19337 28
15470 19336 19338 28
15471 19336 19339 28
15472 19336 19340 28
15473 19341 19342 28
15474 19341 19343 28
15475 19341 19344 28
15476 19341 19345 28
15477 19346 19347 28
15478 19346 19348 28
15479 19346 19349 28
15480 19346 19350 28
15481 19351 19352 28
15482 19351 19353 28
15483 19351 19354 28
15484 19351 19355 28
15485 19356 19357 28
15486 19356 19358 28
15487 19356 19359 28
15488 19356 19360 28
15489 19361 19362 28
15490 19361 19363 28
15491 19361 19364 28
15492 19361 19365 28
15493 19366 19367 28
15494 19366 19368 28
15495 19366 19369 28
15496 19366 19370 28
15497 19371 19372 28
15498 19371 19373 28
15499 19371 19374 28
15500 19371 19375 28
15501 19376 19377 28
15502 19376 19378 28
15503 19376 19379 28
15504 19376 19380 28
15505 19381 19382 28
15506 19381 19383 28
15507 19381 19384 28
15508 19381 19385 28
15509 19386 19387 28
15510 19386 19388 28
15511 19386 19389 28
15512 19386 19390 28
15513 19391 19392 28
15514 19391 19393 28
15515 19391 19394 28
15516 19391 19395 28
15517 19396 19397 28
15518 19396 19398 28
15519 19396 19399 28
15520 19396 19400 28
15521 19401 19402 28
15522 19401 19403 28
15523 19401 19404 28
15524 19401 19405 28
15525 19406 19407 28
15526 19406 19408 28
15527 19406 19409 28
15528 19406 19410 28
15529 19411 19412 28
15530 19411 19413 28
15531 19411 19414 28
15532 19411 19415 28
15533 19416 19417 28
15534 19416 19418 28
15535 19416 19419 28
15536 19416 19420 28
15537 19421 19422 28
15538 19421 19423 28
15539 19421 19424 28
15540 19421 19425 28
15541 19426 19427 28
15542 19426 19428 28
15543 19426 19429 28
15544 19426 19430 28
15545 19431 19432 28
15546 19431 19433 28
15547 19431 19434 28
15548 19431 19435 28
15549 19436 19437 28
15550 19436 19438 28
15551 19436 19439 28
15552 19436 19440 28
15553 19441 19442 28
15554 19441 19443 28
15555 19441 19444 28
15556 19441 19445 28
15557 19446 19447 28
15558 19446 19448 28
15559 19446 19449 28
15560 19446 19450 28
15561 19451 19452 28
15562 19451 19453 28
15563 19451 19454 28
15564 19451 19455 28
15565 19456 19457 28
15566 19456 19458 28
15567 19456 19459 28
15568 19456 19460 28
15569 19461 19462 28
15570 19461 19463 28
15571 19461 19464 28
15572 19461 19465 28
15573 19466 19467 28
15574 19466 19468 28
15575 19466 19469 28
15576 19466 19470 28
15577 19471 19472 28
15578 19471 19473 28
15579 19471 19474 28
15580 19471 19475 28
15581 19476 19477 28
15582 19476 19478 28
15583 19476 19479 28
15584 19476 19480 28
15585 19481 19482 28
15586 19481 19483 28
15587 19481 19484 28
15588 19481 19485 28
15589 19486 19487 28
15590 19486 19488 28
15591 19486 19489 28
15592 19486 19490 28
15593 19491 19492 28
15594 19491 19493 28
15595 19491 19494 28
15596 19491 19495 28
15597 19496 19497 28
15598 19496 19498 28
15599 19496 19499 28
15600 19496 19500 28
15601 19501 19502 28
15602 19501 19503 28
15603 19501 19504 28
15604 19501 19505 28
15605 19506 19507 28
15606 19506 19508 28
15607 19506 19509 28
15608 19506 19510 28
15609 19511 19512 28
15610 19511 19513 28
15611 19511 19514 28
15612 19511 19515 28
15613 19516 19517 28
15614 19516 19518 28
15615 19516 19519 28
15616 19516 19520 28
15617 19521 19522 28
15618 19521 19523 28
15619 19521 19524 28
15620 19521 19525 28
15621 19526 19527 28
15622 19526 19528 28
15623 19526 19529 28
15624 19526 19530 28
15625 19531 19532 28
15626 19531 19533 28
15627 19531 19534 28
15628 19531 19535 28
15629 19536 19537 28
15630 19536 19538 28
15631 19536 19539 28
15632 19536 19540 28
15633 19541 19542 28
15634 19541 19543 28
15635 19541 19544 28
15636 19541 19545 28
15637 19546 19547 28
15638 19546 19548 28
15639 19546 19549 28
15640 19546 19550 28
15641 19551 19552 28
15642 19551 19553 28
15643 19551 19554 28
15644 19551 19555 28
15645 19556 19557 28
15646 19556 19558 28
15647 19556 19559 28
15648 19556 19560 28
15649 19561 19562 28
15650 19561 19563 28
15651 19561 19564 28
15652 19561 19565 28
15653 19566 19567 28
15654 19566 19568 28
15655 19566 19569 28
15656 19566 19570 28
15657 19571 19572 28
15658 19571 19573 28
15659 19571 19574 28
15660 19571 19575 28
15661 19576 19577 28
15662 19576 19578 28
15663 19576 19579 28
15664 19576 19580 28
15665 19581 19582 28
15666 19581 19583 28
15667 19581 19584 28
15668 19581 19585 28
15669 19586 19587 28
15670 19586 19588 28
15671 19586 19589 28
15672 19586 19590 28
15673 19591 19592 28
15674 19591 19593 28
15675 19591 19594 28
15676 19591 19595 28
15677 19596 19597 28
15678 19596 19598 28
15679 19596 19599 28
15680 19596 19600 28
15681 19601 19602 28
15682 19601 19603 28
15683 19601 19604 28
15684 19601 19605 28
15685 19606 19607 28
15686 19606 19608 28
15687 19606 19609 28
15688 19606 19610 28
15689 19611 19612 28
15690 19611 19613 28
15691 19611 19614 28
15692 19611 19615 28
15693 19616 19617 28
15694 19616 19618 28
15695 19616 19619 28
15696 19616 19620 28
15697 19621 19622 28
15698 19621 19623 28
15699 19621 19624 28
15700 19621 19625 28
15701 19626 19627 28
15702 19626 19628 28
15703 19626 19629 28
15704 19626 19630 28
15705 19631 19632 28
15706 19631 19633 28
15707 19631 19634 28
15708 19631 19635 28
15709 19636 19637 28
15710 19636 19638 28
15711 19636 19639 28
15712 19636 19640 28
15713 19641 19642 28
15714 19641 19643 28
15715 19641 19644 28
15716 19641 19645 28
15717 19646 19647 28
15718 19646 19648 28
15719 19646 19649 28
15720 19646 19650 28
15721 19651 19652 28
15722 19651 19653 28
15723 19651 19654 28
15724 19651 19655 28
15725 19656 19657 28
15726 19656 19658 28
15727 19656 19659 28
15728 19656 19660 28
15729 19661 19662 28
15730 19661 19663 28
15731 19661 19664 28
15732 19661 19665 28
15733 19666 19667 28
15734 19666 19668 28
15735 19666 19669 28
15736 19666 19670 28
15737 19671 19672 28
15738 19671 19673 28
15739 19671 19674 28
15740 19671 19675 28
15741 19676 19677 28
15742 19676 19678 28
15743 19676 19679 28
15744 19676 19680 28
15745 19681 19682 28
15746 19681 19683 28
15747 19681 19684 28
15748 19681 19685 28
15749 19686 19687 28
15750 19686 19688 28
15751 19686 19689 28
15752 19686 19690 28
15753 19691 19692 28
15754 19691 19693 28
15755 19691 19694 28
15756 19691 19695 28
15757 19696 19697 28
15758 19696 19698 28
15759 19696 19699 28
15760 19696 19700 28
15761 19701 19702 28
15762 19701 19703 28
15763 19701 19704 28
15764 19701 19705 28
15765 19706 19707 28
15766 19706 19708 28
15767 19706 19709 28
15768 19706 19710 28
15769 19711 19712 28
15770 19711 19713 28
15771 19711 19714 28
15772 19711 19715 28
15773 19716 19717 28
15774 19716 19718 28
15775 19716 19719 28
15776 19716 19720 28
15777 19721 19722 28
15778 19721 19723 28
15779 19721 19724 28
15780 19721 19725 28
15781 19726 19727 28
15782 19726 19728 28
15783 19726 19729 28
15784 19726 19730 28
15785 19731 19732 28
15786 19731 19733 28
15787 19731 19734 28
15788 19731 19735 28
15789 19736 19737 28
15790 19736 19738 28
15791 19736 19739 28
15792 19736 19740 28
15793 19741 19742 28
15794 19741 19743 28
15795 19741 19744 28
15796 19741 19745 28
15797 19746 19747 28
15798 19746 19748 28
15799 19746 19749 28
15800 19746 19750 28
15801 19751 19752 28
15802 19751 19753 28
15803 19751 19754 28
15804 19751 19755 28
15805 19756 19757 28
15806 19756 19758 28
15807 19756 19759 28
15808 19756 19760 28
15809 19761 19762 28
15810 19761 19763 28
15811 19761 19764 28
15812 19761 19765 28
15813 19766 19767 28
15814 19766 19768 28
15815 19766 19769 28
15816 19766 19770 28
15817 19771 19772 28
15818 19771 19773 28
15819 19771 19774 28
15820 19771 19775 28
15821 19776 19777 28
15822 19776 19778 28
15823 19776 19779 28
15824 19776 19780 28
15825 19781 19782 28
15826 19781 19783 28
15827 19781 19784 28
15828 19781 19785 28
15829 19786 19787 28
15830 19786 19788 28
15831 19786 19789 28
15832 19786 19790 28
15833 19791 19792 28
15834 19791 19793 28
15835 19791 19794 28
15836 19791 19795 28
15837 19796 19797 28
15838 19796 19798 28
15839 19796 19799 28
15840 19796 19800 28
15841 19801 19802 28
15842 19801 19803 28
15843 19801 19804 28
15844 19801 19805 28
15845 19806 19807 28
15846 19806 19808 28
15847 19806 19809 28
15848 19806 19810 28
15849 19811 19812 28
15850 19811 19813 28
15851 19811 19814 28
15852 19811 19815 28
15853 19816 19817 28
15854 19816 19818 28
15855 19816 19819 28
15856 19816 19820 28
15857 19821 19822 28
15858 19821 19823 28
15859 19821 19824 28
15860 19821 19825 28
15861 19826 19827 28
15862 19826 19828 28
15863 19826 19829 28
15864 19826 19830 28
15865 19831 19832 28
15866 19831 19833 28
15867 19831 19834 28
15868 19831 19835 28
15869 19836 19837 28
15870 19836 19838 28
15871 19836 19839 28
15872 19836 19840 28
15873 19841 19842 28
15874 19841 19843 28
15875 19841 19844 28
15876 19841 19845 28
15877 19846 19847 28
15878 19846 19848 28
15879 19846 19849 28
15880 19846 19850 28
15881 19851 19852 28
15882 19851 19853 28
15883 19851 19854 28
15884 19851 19855 28
15885 19856 19857 28
15886 19856 19858 28
15887 19856 19859 28
15888 19856 19860 28
15889 19861 19862 28
15890 19861 19863 28
15891 19861 19864 28
15892 19861 19865 28
15893 19866 19867 28
15894 19866 19868 28
15895 19866 19869 28
15896 19866 19870 28
15897 19871 19872 28
15898 19871 19873 28
15899 19871 19874 28
15900 19871 19875 28
15901 19876 19877 28
15902 19876 19878 28
15903 19876 19879 28
15904 19876 19880 28
15905 19881 19882 28
15906 19881 19883 28
15907 19881 19884 28
15908 19881 19885 28
15909 19886 19887 28
15910 19886 19888 28
15911 19886 19889 28
15912 19886 19890 28
15913 19891 19892 28
15914 19891 19893 28
15915 19891 19894 28
15916 19891 19895 28
15917 19896 19897 28
15918 19896 19898 28
15919 19896 19899 28
15920 19896 19900 28
15921 19901 19902 28
15922 19901 19903 28
15923 19901 19904 28
15924 19901 19905 28
15925 19906 19907 28
15926 19906 19908 28
15927 19906 19909 28
15928 19906 19910 28
15929 19911 19912 28
15930 19911 19913 28
15931 19911 19914 28
15932 19911 19915 28
15933 19916 19917 28
15934 19916 19918 28
15935 19916 19919 28
15936 19916 19920 28
15937 19921 19922 28
15938 19921 19923 28
15939 19921 19924 28
15940 19921 19925 28
15941 19926 19927 28
15942 19926 19928 28
15943 19926 19929 28
15944 19926 19930 28
15945 19931 19932 28
15946 19931 19933 28
15947 19931 19934 28
15948 19931 19935 28
15949 19936 19937 28
15950 19936 19938 28
15951 19936 19939 28
15952 19936 19940 28
15953 19941 19942 28
15954 19941 19943 28
15955 19941 19944 28
15956 19941 19945 28
15957 19946 19947 28
15958 19946 19948 28
15959 19946 19949 28
15960 19946 19950 28
15961 19951 19952 28
15962 19951 19953 28
15963 19951 19954 28
15964 19951 19955 28
15965 19956 19957 28
15966 19956 19958 28
15967 19956 19959 28
15968 19956 19960 28
15969 19961 19962 28
15970 19961 19963 28
15971 19961 19964 28
15972 19961 19965 28
15973 19966 19967 28
15974 19966 19968 28
15975 19966 19969 28
15976 19966 19970 28
15977 19971 19972 28
15978 19971 19973 28
15979 19971 19974 28
15980 19971 19975 28
15981 19976 19977 28
15982 19976 19978 28
15983 19976 19979 28
15984 19976 19980 28
15985 19981 19982 28
15986 19981 19983 28
15987 19981 19984 28
15988 19981 19985 28
15989 19986 19987 28
15990 19986 19988 28
15991 19986 19989 28
15992 19986 19990 28
15993 19991 19992 28
15994 19991 19993 28
15995 19991 19994 28
15996 19991 19995 28
15997 19996 19997 28
15998 19996 19998 28
15999 19996 19999 28
16000 19996 20000 28
16001 20001 20002 28
16002 20001 20003 28
16003 20001 20004 28
16004 20001 20005 28
16005 20006 20007 28
16006 20006 20008 28
16007 20006 20009 28
16008 20006 20010 28
16009 20011 20012 28
16010 20011 20013 28
16011 20011 20014 28
16012 20011 20015 28
16013 20016 20017 28
16014 20016 20018 28
16015 20016 20019 28
16016 20016 20020 28
16017 20021 20022 28
16018 20021 20023 28
16019 20021 20024 28
16020 20021 20025 28
16021 20026 20027 28
16022 20026 20028 28
16023 20026 20029 28
16024 20026 20030 28
16025 20031 20032 28
16026 20031 20033 28
16027 20031 20034 28
16028 20031 20035 28
16029 20036 20037 28
16030 20036 20038 28
16031 20036 20039 28
16032 20036 20040 28
16033 20041 20042 28
16034 20041 20043 28
16035 20041 20044 28
16036 20041 20045 28
16037 20046 20047 28
16038 20046 20048 28
16039 20046 20049 28
16040 20046 20050 28
16041 20051 20052 28
16042 20051 20053 28
16043 20051 20054 28
16044 20051 20055 28
16045 20056 20057 28
16046 20056 20058 28
16047 20056 20059 28
16048 20056 20060 28
16049 20061 20062 28
16050 20061 20063 28
16051 20061 20064 28
16052 20061 20065 28
16053 20066 20067 28
16054 20066 20068 28
16055 20066 20069 28
16056 20066 20070 28
16057 20071 20072 28
16058 20071 20073 28
16059 20071 20074 28
16060 20071 20075 28
16061 20076 20077 28
16062 20076 20078 28
16063 20076 20079 28
16064 20076 20080 28
16065 20081 20082 28
16066 20081 20083 28
16067 20081 20084 28
16068 20081 20085 28
16069 20086 20087 28
16070 20086 20088 28
16071 20086 20089 28
16072 20086 20090 28
16073 20091 20092 28
16074 20091 20093 28
16075 20091 20094 28
16076 20091 20095 28
16077 20096 20097 28
16078 20096 20098 28
16079 20096 20099 28
16080 20096 20100 28
16081 20101 20102 28
16082 20101 20103 28
16083 20101 20104 28
16084 20101 20105 28
16085 20106 20107 28
16086 20106 20108 28
16087 20106 20109 28
16088 20106 20110 28
16089 20111 20112 28
16090 20111 20113 28
16091 20111 20114 28
16092 20111 20115 28
16093 20116 20117 28
16094 20116 20118 28
16095 20116 20119 28
16096 20116 20120 28
16097 20121 20122 28
16098 20121 20123 28
16099 20121 20124 28
16100 20121 20125 28
16101 20126 20127 28
16102 20126 20128 28
16103 20126 20129 28
16104 20126 20130 28
16105 20131 20132 28
16106 20131 20133 28
16107 20131 20134 28
16108 20131 20135 28
16109 20136 20137 28
16110 20136 20138 28
16111 20136 20139 28
16112 20136 20140 28
16113 20141 20142 28
16114 20141 20143 28
16115 20141 20144 28
16116 20141 20145 28
16117 20146 20147 28
16118 20146 20148 28
16119 20146 20149 28
16120 20146 20150 28
16121 20151 20152 28
16122 20151 20153 28
16123 20151 20154 28
16124 20151 20155 28
16125 20156 20157 28
16126 20156 20158 28
16127 20156 20159 28
16128 20156 20160 28
16129 20161 20162 28
16130 20161 20163 28
16131 20161 20164 28
16132 20161 20165 28
16133 20166 20167 28
16134 20166 20168 28
16135 20166 20169 28
16136 20166 20170 28
16137 20171 20172 28
16138 20171 20173 28
16139 20171 20174 28
16140 20171 20175 28
16141 20176 20177 28
16142 20176 20178 28
16143 20176 20179 28
16144 20176 20180 28
16145 20181 20182 28
16146 20181 20183 28
16147 20181 20184 28
16148 20181 20185 28
16149 20186 20187 28
16150 20186 20188 28
16151 20186 20189 28
16152 20186 20190 28
16153 20191 20192 28
16154 20191 20193 28
16155 20191 20194 28
16156 20191 20195 28
16157 20196 20197 28
16158 20196 20198 28
16159 20196 20199 28
16160 20196 20200 28
16161 20201 20202 28
16162 20201 20203 28
16163 20201 20204 28
16164 20201 20205 28
16165 20206 20207 28
16166 20206 20208 28
16167 20206 20209 28
16168 20206 20210 28
16169 20211 20212 28
16170 20211 20213 28
16171 20211 20214 28
16172 20211 20215 28
16173 20216 20217 28
16174 20216 20218 28
16175 20216 20219 28
16176 20216 20220 28
16177 20221 20222 28
16178 20221 20223 28
16179 20221 20224 28
16180 20221 20225 28
16181 20226 20227 28
16182 20226 20228 28
16183 20226 20229 28
16184 20226 20230 28
16185 20231 20232 28
16186 20231 20233 28
16187 20231 20234 28
16188 20231 20235 28
16189 20236 20237 28
16190 20236 20238 28
16191 20236 20239 28
16192 20236 20240 28
16193 20241 20242 28
16194 20241 20243 28
16195 20241 20244 28
16196 20241 20245 28
16197 20246 20247 28
16198 20246 20248 28
16199 20246 20249 28
16200 20246 20250 28
16201 20251 20252 28
16202 20251 20253 28
16203 20251 20254 28
16204 20251 20255 28
16205 20256 20257 28
16206 20256 20258 28
16207 20256 20259 28
16208 20256 20260 28
16209 20261 20262 28
16210 20261 20263 28
16211 20261 20264 28
16212 20261 20265 28
16213 20266 20267 28
16214 20266 20268 28
16215 20266 20269 28
16216 20266 20270 28
16217 20271 20272 28
16218 20271 20273 28
16219 20271 20274 28
16220 20271 20275 28
16221 20276 20277 28
16222 20276 20278 28
16223 20276 20279 28
16224 20276 20280 28
16225 20281 20282 28
16226 20281 20283 28
16227 20281 20284 28
16228 20281 20285 28
16229 20286 20287 28
16230 20286 20288 28
16231 20286 20289 28
16232 20286 20290 28
16233 20291 20292 28
16234 20291 20293 28
16235 20291 20294 28
16236 20291 20295 28
16237 20296 20297 28
16238 20296 20298 28
16239 20296 20299 28
16240 20296 20300 28
16241 20301 20302 28
16242 20301 20303 28
16243 20301 20304 28
16244 20301 20305 28
16245 20306 20307 28
16246 20306 20308 28
16247 20306 20309 28
16248 20306 20310 28
16249 20311 20312 28
16250 20311 20313 28
16251 20311 20314 28
16252 20311 20315 28
16253 20316 20317 28
16254 20316 20318 28
16255 20316 20319 28
16256 20316 20320 28
16257 20321 20322 28
16258 20321 20323 28
16259 20321 20324 28
16260 20321 20325 28
16261 20326 20327 28
16262 20326 20328 28
16263 20326 20329 28
16264 20326 20330 28
16265 20331 20332 28
16266 20331 20333 28
16267 20331 20334 28
16268 20331 20335 28
16269 20336 20337 28
16270 20336 20338 28
16271 20336 20339 28
16272 20336 20340 28
16273 20341 20342 28
16274 20341 20343 28
16275 20341 20344 28
16276 20341 20345 28
16277 20346 20347 28
16278 20346 20348 28
16279 20346 20349 28
16280 20346 20350 28
16281 20351 20352 28
16282 20351 20353 28
16283 20351 20354 28
16284 20351 20355 28
16285 20356 20357 28
16286 20356 20358 28
16287 20356 20359 28
16288 20356 20360 28
16289 20361 20362 28
16290 20361 20363 28
16291 20361 20364 28
16292 20361 20365 28
16293 20366 20367 28
16294 20366 20368 28
16295 20366 20369 28
16296 20366 20370 28
16297 20371 20372 28
16298 20371 20373 28
16299 20371 20374 28
16300 20371 20375 28
16301 20376 20377 28
16302 20376 20378 28
16303 20376 20379 28
16304 20376 20380 28
16305 20381 20382 28
16306 20381 20383 28
16307 20381 20384 28
16308 20381 20385 28
16309 20386 20387 28
16310 20386 20388 28
16311 20386 20389 28
16312 20386 20390 28
16313 20391 20392 28
16314 20391 20393 28
16315 20391 20394 28
16316 20391 20395 28
16317 20396 20397 28
16318 20396 20398 28
16319 20396 20399 28
16320 20396 20400 28
16321 20401 20402 28
16322 20401 20403 28
16323 20401 20404 28
16324 20401 20405 28
16325 20406 20407 28
16326 20406 20408 28
16327 20406 20409 28
16328 20406 20410 28
16329 20411 20412 28
16330 20411 20413 28
16331 20411 20414 28
16332 20411 20415 28
16333 20416 20417 28
16334 20416 20418 28
16335 20416 20419 28
16336 20416 20420 28
16337 20421 20422 28
16338 20421 20423 28
16339 20421 20424 28
16340 20421 20425 28
16341 20426 20427 28
16342 20426 20428 28
16343 20426 20429 28
16344 20426 20430 28
16345 20431 20432 28
16346 20431 20433 28
16347 20431 20434 28
16348 20431 20435 28
16349 20436 20437 28
16350 20436 20438 28
16351 20436 20439 28
16352 20436 20440 28
16353 20441 20442 28
16354 20441 20443 28
16355 20441 20444 28
16356 20441 20445 28
16357 20446 20447 28
16358 20446 20448 28
16359 20446 20449 28
16360 20446 20450 28
16361 20451 20452 28
16362 20451 20453 28
16363 20451 20454 28
16364 20451 20455 28
16365 20456 20457 28
16366 20456 20458 28
16367 20456 20459 28
16368 20456 20460 28
16369 20461 20462 28
16370 20461 20463 28
16371 20461 20464 28
16372 20461 20465 28
16373 20466 20467 28
16374 20466 20468 28
16375 20466 20469 28
16376 20466 20470 28
16377 20471 20472 28
16378 20471 20473 28
16379 20471 20474 28
16380 20471 20475 28
16381 20476 20477 28
16382 20476 20478 28
16383 20476 20479 28
16384 20476 20480 28
16385 20481 20482 28
16386 20481 20483 28
16387 20481 20484 28
16388 20481 20485 28
16389 20486 20487 28
16390 20486 20488 28
16391 20486 20489 28
16392 20486 20490 28
16393 20491 20492 28
16394 20491 20493 28
16395 20491 20494 28
16396 20491 20495 28
16397 20496 20497 28
16398 20496 20498 28
16399 20496 20499 28
16400 20496 20500 28
16401 20501 20502 28
16402 20501 20503 28
16403 20501 20504 28
16404 20501 20505 28
16405 20506 20507 28
16406 20506 20508 28
16407 20506 20509 28
16408 20506 20510 28
16409 20511 20512 28
16410 20511 20513 28
16411 20511 20514 28
16412 20511 20515 28
16413 20516 20517 28
16414 20516 20518 28
16415 20516 20519 28
16416 20516 20520 28
16417 20521 20522 28
16418 20521 20523 28
16419 20521 20524 28
16420 20521 20525 28
16421 20526 20527 28
16422 20526 20528 28
16423 20526 20529 28
16424 20526 20530 28
16425 20531 20532 28
16426 20531 20533 28
16427 20531 20534 28
16428 20531 20535 28
16429 20536 20537 28
16430 20536 20538 28
16431 20536 20539 28
16432 20536 20540 28
16433 20541 20542 28
16434 20541 20543 28
16435 20541 20544 28
16436 20541 20545 28
16437 20546 20547 28
16438 20546 20548 28
16439 20546 20549 28
16440 20546 20550 28
16441 20551 20552 28
16442 20551 20553 28
16443 20551 20554 28
16444 20551 20555 28
16445 20556 20557 28
16446 20556 20558 28
16447 20556 20559 28
16448 20556 20560 28
16449 20561 20562 28
16450 20561 20563 28
16451 20561 20564 28
16452 20561 20565 28
16453 20566 20567 28
16454 20566 20568 28
16455 20566 20569 28
16456 20566 20570 28
16457 20571 20572 28
16458 20571 20573 28
16459 20571 20574 28
16460 20571 20575 28
16461 20576 20577 28
16462 20576 20578 28
16463 20576 20579 28
16464 20576 20580 28
16465 20581 20582 28
16466 20581 20583 28
16467 20581 20584 28
16468 20581 20585 28
16469 20586 20587 28
16470 20586 20588 28
16471 20586 20589 28
16472 20586 20590 28
16473 20591 20592 28
16474 20591 20593 28
16475 20591 20594 28
16476 20591 20595 28
16477 20596 20597 28
16478 20596 20598 28
16479 20596 20599 28
16480 20596 20600 28
16481 20601 20602 28
16482 20601 20603 28
16483 20601 20604 28
16484 20601 20605 28
16485 20606 20607 28
16486 20606 20608 28
16487 20606 20609 28
16488 20606 20610 28
16489 20611 20612 28
16490 20611 20613 28
16491 20611 20614 28
16492 20611 20615 28
16493 20616 20617 28
16494 20616 20618 28
16495 20616 20619 28
16496 20616 20620 28
16497 20621 20622 28
16498 20621 20623 28
16499 20621 20624 28
16500 20621 20625 28
16501 20626 20627 28
16502 20626 20628 28
16503 20626 20629 28
16504 20626 20630 28
16505 20631 20632 28
16506 20631 20633 28
16507 20631 20634 28
16508 20631 20635 28
16509 20636 20637 28
16510 20636 20638 28
16511 20636 20639 28
16512 20636 20640 28
16513 20641 20642 28
16514 20641 20643 28
16515 20641 20644 28
16516 20641 20645 28
16517 20646 20647 28
16518 20646 20648 28
16519 20646 20649 28
16520 20646 20650 28
16521 20651 20652 28
16522 20651 20653 28
16523 20651 20654 28
16524 20651 20655 28
16525 20656 20657 28
16526 20656 20658 28
16527 20656 20659 28
16528 20656 20660 28
16529 20661 20662 28
16530 20661 20663 28
16531 20661 20664 28
16532 20661 20665 28
16533 20666 20667 28
16534 20666 20668 28
16535 20666 20669 28
16536 20666 20670 28
16537 20671 20672 28
16538 20671 20673 28
16539 20671 20674 28
16540 20671 20675 28
16541 20676 20677 28
16542 20676 20678 28
16543 20676 20679 28
16544 20676 20680 28
16545 20681 20682 28
16546 20681 20683 28
16547 20681 20684 28
16548 20681 20685 28
16549 20686 20687 28
16550 20686 20688 28
16551 20686 20689 28
16552 20686 20690 28
16553 20691 20692 28
16554 20691 20693 28
16555 20691 20694 28
16556 20691 20695 28
16557 20696 20697 28
16558 20696 20698 28
16559 20696 20699 28
16560 20696 20700 28
16561 20701 20702 28
16562 20701 20703 28
16563 20701 20704 28
16564 20701 20705 28
16565 20706 20707 28
16566 20706 20708 28
16567 20706 20709 28
16568 20706 20710 28
16569 20711 20712 28
16570 20711 20713 28
16571 20711 20714 28
16572 20711 20715 28
16573 20716 20717 28
16574 20716 20718 28
16575 20716 20719 28
16576 20716 20720 28
16577 20721 20722 28
16578 20721 20723 28
16579 20721 20724 28
16580 20721 20725 28
16581 20726 20727 28
16582 20726 20728 28
16583 20726 20729 28
16584 20726 20730 28
16585 20731 20732 28
16586 20731 20733 28
16587 20731 20734 28
16588 20731 20735 28
16589 20736 20737 28
16590 20736 20738 28
16591 20736 20739 28
16592 20736 20740 28
16593 20741 20742 28
16594 20741 20743 28
16595 20741 20744 28
16596 20741 20745 28
16597 20746 20747 28
16598 20746 20748 28
16599 20746 20749 28
16600 20746 20750 28
16601 20751 20752 28
16602 20751 20753 28
16603 20751 20754 28
16604 20751 20755 28
16605 20756 20757 28
16606 20756 20758 28
16607 20756 20759 28
16608 20756 20760 28
16609 20761 20762 28
16610 20761 20763 28
16611 20761 20764 28
16612 20761 20765 28
16613 20766 20767 28
16614 20766 20768 28
16615 20766 20769 28
16616 20766 20770 28
16617 20771 20772 28
16618 20771 20773 28
16619 20771 20774 28
16620 20771 20775 28
16621 20776 20777 28
16622 20776 20778 28
16623 20776 20779 28
16624 20776 20780 28
16625 20781 20782 28
16626 20781 20783 28
16627 20781 20784 28
16628 20781 20785 28
16629 20786 20787 28
16630 20786 20788 28
16631 20786 20789 28
16632 20786 20790 28
16633 20791 20792 28
16634 20791 20793 28
16635 20791 20794 28
16636 20791 20795 28
16637 20796 20797 28
16638 20796 20798 28
16639 20796 20799 28
16640 20796 20800 28
16641 20801 20802 28
16642 20801 20803 28
16643 20801 20804 28
16644 20801 20805 28
16645 20806 20807 28
16646 20806 20808 28
16647 20806 20809 28
16648 20806 20810 28
16649 20811 20812 28
16650 20811 20813 28
16651 20811 20814 28
16652 20811 20815 28
16653 20816 20817 28
16654 20816 20818 28
16655 20816 20819 28
16656 20816 20820 28
16657 20821 20822 28
16658 20821 20823 28
16659 20821 20824 28
16660 20821 20825 28
16661 20826 20827 28
16662 20826 20828 28
16663 20826 20829 28
16664 20826 20830 28
16665 20831 20832 28
16666 20831 20833 28
16667 20831 20834 28
16668 20831 20835 28
16669 20836 20837 28
16670 20836 20838 28
16671 20836 20839 28
16672 20836 20840 28
16673 20841 20842 28
16674 20841 20843 28
16675 20841 20844 28
16676 20841 20845 28
16677 20846 20847 28
16678 20846 20848 28
16679 20846 20849 28
16680 20846 20850 28
16681 20851 20852 28
16682 20851 20853 28
16683 20851 20854 28
16684 20851 20855 28
16685 20856 20857 28
16686 20856 20858 28
16687 20856 20859 28
16688 20856 20860 28
16689 20861 20862 28
16690 20861 20863 28
16691 20861 20864 28
16692 20861 20865 28
16693 20866 20867 28
16694 20866 20868 28
16695 20866 20869 28
16696 20866 20870 28
16697 20871 20872 28
16698 20871 20873 28
16699 20871 20874 28
16700 20871 20875 28
16701 20876 20877 28
16702 20876 20878 28
16703 20876 20879 28
16704 20876 20880 28
16705 20881 20882 28
16706 20881 20883 28
16707 20881 20884 28
16708 20881 20885 28
16709 20886 20887 28
16710 20886 20888 28
16711 20886 20889 28
16712 20886 20890 28
16713 20891 20892 28
16714 20891 20893 28
16715 20891 20894 28
16716 20891 20895 28
16717 20896 20897 28
16718 20896 20898 28
16719 20896 20899 28
16720 20896 20900 28
16721 20901 20902 28
16722 20901 20903 28
16723 20901 20904 28
16724 20901 20905 28
16725 20906 20907 28
16726 20906 20908 28
16727 20906 20909 28
16728 20906 20910 28
16729 20911 20912 28
16730 20911 20913 28
16731 20911 20914 28
16732 20911 20915 28
16733 20916 20917 28
16734 20916 20918 28
16735 20916 20919 28
16736 20916 20920 28
16737 20921 20922 28
16738 20921 20923 28
16739 20921 20924 28
16740 20921 20925 28
16741 20926 20927 28
16742 20926 20928 28
16743 20926 20929 28
16744 20926 20930 28
16745 20931 20932 28
16746 20931 20933 28
16747 20931 20934 28
16748 20931 20935 28
16749 20936 20937 28
16750 20936 20938 28
16751 20936 20939 28
16752 20936 20940 28
16753 20941 20942 28
16754 20941 20943 28
16755 20941 20944 28
16756 20941 20945 28
16757 20946 20947 28
16758 20946 20948 28
16759 20946 20949 28
16760 20946 20950 28
16761 20951 20952 28
16762 20951 20953 28
16763 20951 20954 28
16764 20951 20955 28
16765 20956 20957 28
16766 20956 20958 28
16767 20956 20959 28
16768 20956 20960 28
16769 20961 20962 28
16770 20961 20963 28
16771 20961 20964 28
16772 20961 20965 28
16773 20966 20967 28
16774 20966 20968 28
16775 20966 20969 28
16776 20966 20970 28
16777 20971 20972 28
16778 20971 20973 28
16779 20971 20974 28
16780 20971 20975 28
16781 20976 20977 28
16782 20976 20978 28
16783 20976 20979 28
16784 20976 20980 28
16785 20981 20982 28
16786 20981 20983 28
16787 20981 20984 28
16788 20981 20985 28
16789 20986 20987 28
16790 20986 20988 28
16791 20986 20989 28
16792 20986 20990 28
16793 20991 20992 28
16794 20991 20993 28
16795 20991 20994 28
16796 20991 20995 28
16797 20996 20997 28
16798 20996 20998 28
16799 20996 20999 28
16800 20996 21000 28
16801 21001 21002 28
16802 21001 21003 28
16803 21001 21004 28
16804 21001 21005 28
16805 21006 21007 28
16806 21006 21008 28
16807 21006 21009 28
16808 21006 21010 28
16809 21011 21012 28
16810 21011 21013 28
16811 21011 21014 28
16812 21011 21015 28
16813 21016 21017 28
16814 21016 21018 28
16815 21016 21019 28
16816 21016 21020 28
16817 21021 21022 28
16818 21021 21023 28
16819 21021 21024 28
16820 21021 21025 28
16821 21026 21027 28
16822 21026 21028 28
16823 21026 21029 28
16824 21026 21030 28
16825 21031 21032 28
16826 21031 21033 28
16827 21031 21034 28
16828 21031 21035 28
16829 21036 21037 28
16830 21036 21038 28
16831 21036 21039 28
16832 21036 21040 28
16833 21041 21042 28
16834 21041 21043 28
16835 21041 21044 28
16836 21041 21045 28
16837 21046 21047 28
16838 21046 21048 28
16839 21046 21049 28
16840 21046 21050 28
16841 21051 21052 28
16842 21051 21053 28
16843 21051 21054 28
16844 21051 21055 28
16845 21056 21057 28
16846 21056 21058 28
16847 21056 21059 28
16848 21056 21060 28
16849 21061 21062 28
16850 21061 21063 28
16851 21061 21064 28
16852 21061 21065 28
16853 21066 21067 28
16854 21066 21068 28
16855 21066 21069 28
16856 21066 21070 28
16857 21071 21072 28
16858 21071 21073 28
16859 21071 21074 28
16860 21071 21075 28
16861 21076 21077 28
16862 21076 21078 28
16863 21076 21079 28
16864 21076 21080 28
16865 21081 21082 28
16866 21081 21083 28
16867 21081 21084 28
16868 21081 21085 28
16869 21086 21087 28
16870 21086 21088 28
16871 21086 21089 28
16872 21086 21090 28
16873 21091 21092 28
16874 21091 21093 28
16875 21091 21094 28
16876 21091 21095 28
16877 21096 21097 28
16878 21096 21098 28
16879 21096 21099 28
16880 21096 21100 28
16881 21101 21102 28
16882 21101 21103 28
16883 21101 21104 28
16884 21101 21105 28
16885 21106 21107 28
16886 21106 21108 28
16887 21106 21109 28
16888 21106 21110 28
16889 21111 21112 28
16890 21111 21113 28
16891 21111 21114 28
16892 21111 21115 28
16893 21116 21117 28
16894 21116 21118 28
16895 21116 21119 28
16896 21116 21120 28
16897 21121 21122 28
16898 21121 21123 28
16899 21121 21124 28
16900 21121 21125 28
16901 21126 21127 28
16902 21126 21128 28
16903 21126 21129 28
16904 21126 21130 28
16905 21131 21132 28
16906 21131 21133 28
16907 21131 21134 28
16908 21131 21135 28
16909 21136 21137 28
16910 21136 21138 28
16911 21136 21139 28
16912 21136 21140 28
16913 21141 21142 28
16914 21141 21143 28
16915 21141 21144 28
16916 21141 21145 28
16917 21146 21147 28
16918 21146 21148 28
16919 21146 21149 28
16920 21146 21150 28
16921 21151 21152 28
16922 21151 21153 28
16923 21151 21154 28
16924 21151 21155 28
16925 21156 21157 28
16926 21156 21158 28
16927 21156 21159 28
16928 21156 21160 28
16929 21161 21162 28
16930 21161 21163 28
16931 21161 21164 28
16932 21161 21165 28
16933 21166 21167 28
16934 21166 21168 28
16935 21166 21169 28
16936 21166 21170 28
16937 21171 21172 28
16938 21171 21173 28
16939 21171 21174 28
16940 21171 21175 28
16941 21176 21177 28
16942 21176 21178 28
16943 21176 21179 28
16944 21176 21180 28
16945 21181 21182 28
16946 21181 21183 28
16947 21181 21184 28
16948 21181 21185 28
16949 21186 21187 28
16950 21186 21188 28
16951 21186 21189 28
16952 21186 21190 28
16953 21191 21192 28
16954 21191 21193 28
16955 21191 21194 28
16956 21191 21195 28
16957 21196 21197 28
16958 21196 21198 28
16959 21196 21199 28
16960 21196 21200 28
16961 21201 21202 28
16962 21201 21203 28
16963 21201 21204 28
16964 21201 21205 28
16965 21206 21207 28
16966 21206 21208 28
16967 21206 21209 28
16968 21206 21210 28
16969 21211 21212 28
16970 21211 21213 28
16971 21211 21214 28
16972 21211 21215 28
16973 21216 21217 28
16974 21216 21218 28
16975 21216 21219 28
16976 21216 21220 28
16977 21221 21222 28
16978 21221 21223 28
16979 21221 21224 28
16980 21221 21225 28
16981 21226 21227 28
16982 21226 21228 28
16983 21226 21229 28
16984 21226 21230 28
16985 21231 21232 28
16986 21231 21233 28
16987 21231 21234 28
16988 21231 21235 28
16989 21236 21237 28
16990 21236 21238 28
16991 21236 21239 28
16992 21236 21240 28
16993 21241 21242 28
16994 21241 21243 28
16995 21241 21244 28
16996 21241 21245 28
16997 21246 21247 28
16998 21246 21248 28
16999 21246 21249 28
17000 21246 21250 28
17001 21251 21252 28
17002 21251 21253 28
17003 21251 21254 28
17004 21251 21255 28
17005 21256 21257 28
17006 21256 21258 28
17007 21256 21259 28
17008 21256 21260 28
17009 21261 21262 28
17010 21261 21263 28
17011 21261 21264 28
17012 21261 21265 28
17013 21266 21267 28
17014 21266 21268 28
17015 21266 21269 28
17016 21266 21270 28
17017 21271 21272 28
17018 21271 21273 28
17019 21271 21274 28
17020 21271 21275 28
17021 21276 21277 28
17022 21276 21278 28
17023 21276 21279 28
17024 21276 21280 28
17025 21281 21282 28
17026 21281 21283 28
17027 21281 21284 28
17028 21281 21285 28
17029 21286 21287 28
17030 21286 21288 28
17031 21286 21289 28
17032 21286 21290 28
17033 21291 21292 28
17034 21291 21293 28
17035 21291 21294 28
17036 21291 21295 28
17037 21296 21297 28
17038 21296 21298 28
17039 21296 21299 28
17040 21296 21300 28
17041 21301 21302 28
17042 21301 21303 28
17043 21301 21304 28
17044 21301 21305 28
17045 21306 21307 28
17046 21306 21308 28
17047 21306 21309 28
17048 21306 21310 28
17049 21311 21312 28
17050 21311 21313 28
17051 21311 21314 28
17052 21311 21315 28
17053 21316 21317 28
17054 21316 21318 28
17055 21316 21319 28
17056 21316 21320 28
17057 21321 21322 28
17058 21321 21323 28
17059 21321 21324 28
17060 21321 21325 28
17061 21326 21327 28
17062 21326 21328 28
17063 21326 21329 28
17064 21326 21330 28
17065 21331 21332 28
17066 21331 21333 28
17067 21331 21334 28
17068 21331 21335 28
17069 21336 21337 28
17070 21336 21338 28
17071 21336 21339 28
17072 21336 21340 28
17073 21341 21342 28
17074 21341 21343 28
17075 21341 21344 28
17076 21341 21345 28
17077 21346 21347 28
17078 21346 21348 28
17079 21346 21349 28
17080 21346 21350 28
17081 21351 21352 28
17082 21351 21353 28
17083 21351 21354 28
17084 21351 21355 28
17085 21356 21357 28
17086 21356 21358 28
17087 21356 21359 28
17088 21356 21360 28
17089 21361 21362 28
17090 21361 21363 28
17091 21361 21364 28
17092 21361 21365 28
17093 21366 21367 28
17094 21366 21368 28
17095 21366 21369 28
17096 21366 21370 28
17097 21371 21372 28
17098 21371 21373 28
17099 21371 21374 28
17100 21371 21375 28
17101 21376 21377 28
17102 21376 21378 28
17103 21376 21379 28
17104 21376 21380 28
17105 21381 21382 28
17106 21381 21383 28
17107 21381 21384 28
17108 21381 21385 28
17109 21386 21387 28
17110 21386 21388 28
17111 21386 21389 28
17112 21386 21390 28
17113 21391 21392 28
17114 21391 21393 28
17115 21391 21394 28
17116 21391 21395 28
17117 21396 21397 28
17118 21396 21398 28
17119 21396 21399 28
17120 21396 21400 28
17121 21401 21402 28
17122 21401 21403 28
17123 21401 21404 28
17124 21401 21405 28
17125 21406 21407 28
17126 21406 21408 28
17127 21406 21409 28
17128 21406 21410 28
17129 21411 21412 28
17130 21411 21413 28
17131 21411 21414 28
17132 21411 21415 28
17133 21416 21417 28
17134 21416 21418 28
17135 21416 21419 28
17136 21416 21420 28
17137 21421 21422 28
17138 21421 21423 28
17139 21421 21424 28
17140 21421 21425 28
17141 21426 21427 28
17142 21426 21428 28
17143 21426 21429 28
17144 21426 21430 28
17145 21431 21432 28
17146 21431 21433 28
17147 21431 21434 28
17148 21431 21435 28
17149 21436 21437 28
17150 21436 21438 28
17151 21436 21439 28
17152 21436 21440 28
17153 21441 21442 28
17154 21441 21443 28
17155 21441 21444 28
17156 21441 21445 28
17157 21446 21447 28
17158 21446 21448 28
17159 21446 21449 28
17160 21446 21450 28
17161 21451 21452 28
17162 21451 21453 28
17163 21451 21454 28
17164 21451 21455 28
17165 21456 21457 28
17166 21456 21458 28
17167 21456 21459 28
17168 21456 21460 28
17169 21461 21462 28
17170 21461 21463 28
17171 21461 21464 28
17172 21461 21465 28
17173 21466 21467 28
17174 21466 21468 28
17175 21466 21469 28
17176 21466 21470 28
17177 21471 21472 28
17178 21471 21473 28
17179 21471 21474 28
17180 21471 21475 28
17181 21476 21477 28
17182 21476 21478 28
17183 21476 21479 28
17184 21476 21480 28
17185 21481 21482 28
17186 21481 21483 28
17187 21481 21484 28
17188 21481 21485 28
17189 21486 21487 28
17190 21486 21488 28
17191 21486 21489 28
17192 21486 21490 28
17193 21491 21492 28
17194 21491 21493 28
17195 21491 21494 28
17196 21491 21495 28
17197 21496 21497 28
17198 21496 21498 28
17199 21496 21499 28
17200 21496 21500 28
17201 21501 21502 28
17202 21501 21503 28
17203 21501 21504 28
17204 21501 21505 28
17205 21506 21507 28
17206 21506 21508 28
17207 21506 21509 28
17208 21506 21510 28
17209 21511 21512 28
17210 21511 21513 28
17211 21511 21514 28
17212 21511 21515 28
17213 21516 21517 28
17214 21516 21518 28
17215 21516 21519 28
17216 21516 21520 28
17217 21521 21522 28
17218 21521 21523 28
17219 21521 21524 28
17220 21521 21525 28
17221 21526 21527 28
17222 21526 21528 28
17223 21526 21529 28
17224 21526 21530 28
17225 21531 21532 28
17226 21531 21533 28
17227 21531 21534 28
17228 21531 21535 28
17229 21536 21537 28
17230 21536 21538 28
17231 21536 21539 28
17232 21536 21540 28
17233 21541 21542 28
17234 21541 21543 28
17235 21541 21544 28
17236 21541 21545 28
17237 21546 21547 28
17238 21546 21548 28
17239 21546 21549 28
17240 21546 21550 28
17241 21551 21552 28
17242 21551 21553 28
17243 21551 21554 28
17244 21551 21555 28
17245 21556 21557 28
17246 21556 21558 28
17247 21556 21559 28
17248 21556 21560 28
17249 21561 21562 28
17250 21561 21563 28
17251 21561 21564 28
17252 21561 21565 28
17253 21566 21567 28
17254 21566 21568 28
17255 21566 21569 28
17256 21566 21570 28
17257 21571 21572 28
17258 21571 21573 28
17259 21571 21574 28
17260 21571 21575 28
17261 21576 21577 28
17262 21576 21578 28
17263 21576 21579 28
17264 21576 21580 28
17265 21581 21582 28
17266 21581 21583 28
17267 21581 21584 28
17268 21581 21585 28
17269 21586 21587 28
17270 21586 21588 28
17271 21586 21589 28
17272 21586 21590 28
17273 21591 21592 28
17274 21591 21593 28
17275 21591 21594 28
17276 21591 21595 28
17277 21596 21597 28
17278 21596 21598 28
17279 21596 21599 28
17280 21596 21600 28
17281 21601 21602 28
17282 21601 21603 28
17283 21601 21604 28
17284 21601 21605 28
17285 21606 21607 28
17286 21606 21608 28
17287 21606 21609 28
17288 21606 21610 28
17289 21611 21612 28
17290 21611 21613 28
17291 21611 21614 28
17292 21611 21615 28
17293 21616 21617 28
17294 21616 21618 28
17295 21616 21619 28
17296 21616 21620 28
17297 21621 21622 28
17298 21621 21623 28
17299 21621 21624 28
17300 21621 21625 28
17301 21626 21627 28
17302 21626 21628 28
17303 21626 21629 28
17304 21626 21630 28
17305 21631 21632 28
17306 21631 21633 28
17307 21631 21634 28
17308 21631 21635 28
17309 21636 21637 28
17310 21636 21638 28
17311 21636 21639 28
17312 21636 21640 28
17313 21641 21642 28
17314 21641 21643 28
17315 21641 21644 28
17316 21641 21645 28
17317 21646 21647 28
17318 21646 21648 28
17319 21646 21649 28
17320 21646 21650 28
17321 21651 21652 28
17322 21651 21653 28
17323 21651 21654 28
17324 21651 21655 28
17325 21656 21657 28
17326 21656 21658 28
17327 21656 21659 28
17328 21656 21660 28
17329 21661 21662 28
17330 21661 21663 28
17331 21661 21664 28
17332 21661 21665 28
17333 21666 21667 28
17334 21666 21668 28
17335 21666 21669 28
17336 21666 21670 28
17337 21671 21672 28
17338 21671 21673 28
17339 21671 21674 28
17340 21671 21675 28
17341 21676 21677 28
17342 21676 21678 28
17343 21676 21679 28
17344 21676 21680 28
17345 21681 21682 28
17346 21681 21683 28
17347 21681 21684 28
17348 21681 21685 28
17349 21686 21687 28
17350 21686 21688 28
17351 21686 21689 28
17352 21686 21690 28
17353 21691 21692 28
17354 21691 21693 28
17355 21691 21694 28
17356 21691 21695 28
17357 21696 21697 28
17358 21696 21698 28
17359 21696 21699 28
17360 21696 21700 28
17361 21701 21702 28
17362 21701 21703 28
17363 21701 21704 28
17364 21701 21705 28
17365 21706 21707 28
17366 21706 21708 28
17367 21706 21709 28
17368 21706 21710 28
17369 21711 21712 28
17370 21711 21713 28
17371 21711 21714 28
17372 21711 21715 28
17373 21716 21717 28
17374 21716 21718 28
17375 21716 21719 28
17376 21716 21720 28
17377 21721 21722 28
17378 21721 21723 28
17379 21721 21724 28
17380 21721 21725 28
17381 21726 21727 28
17382 21726 21728 28
17383 21726 21729 28
17384 21726 21730 28
17385 21731 21732 28
17386 21731 21733 28
17387 21731 21734 28
17388 21731 21735 28
17389 21736 21737 28
17390 21736 21738 28
17391 21736 21739 28
17392 21736 21740 28
17393 21741 21742 28
17394 21741 21743 28
17395 21741 21744 28
17396 21741 21745 28
17397 21746 21747 28
17398 21746 21748 28
17399 21746 21749 28
17400 21746 21750 28
17401 21751 21752 28
17402 21751 21753 28
17403 21751 21754 28
17404 21751 21755 28
17405 21756 21757 28
17406 21756 21758 28
17407 21756 21759 28
17408 21756 21760 28
17409 21761 21762 28
17410 21761 21763 28
17411 21761 21764 28
17412 21761 21765 28
17413 21766 21767 28
17414 21766 21768 28
17415 21766 21769 28
17416 21766 21770 28
17417 21771 21772 28
17418 21771 21773 28
17419 21771 21774 28
17420 21771 21775 28
17421 21776 21777 28
17422 21776 21778 28
17423 21776 21779 28
17424 21776 21780 28
17425 21781 21782 28
17426 21781 21783 28
17427 21781 21784 28
17428 21781 21785 28
17429 21786 21787 28
17430 21786 21788 28
17431 21786 21789 28
17432 21786 21790 28
17433 21791 21792 28
17434 21791 21793 28
17435 21791 21794 28
17436 21791 21795 28
17437 21796 21797 28
17438 21796 21798 28
17439 21796 21799 28
17440 21796 21800 28
17441 21801 21802 28
17442 21801 21803 28
17443 21801 21804 28
17444 21801 21805 28
17445 21806 21807 28
17446 21806 21808 28
17447 21806 21809 28
17448 21806 21810 28
17449 21811 21812 28
17450 21811 21813 28
17451 21811 21814 28
17452 21811 21815 28
17453 21816 21817 28
17454 21816 21818 28
17455 21816 21819 28
17456 21816 21820 28
17457 21821 21822 28
17458 21821 21823 28
17459 21821 21824 28
17460 21821 21825 28
17461 21826 21827 28
17462 21826 21828 28
17463 21826 21829 28
17464 21826 21830 28
17465 21831 21832 28
17466 21831 21833 28
17467 21831 21834 28
17468 21831 21835 28
17469 21836 21837 28
17470 21836 21838 28
17471 21836 21839 28
17472 21836 21840 28
17473 21841 21842 28
17474 21841 21843 28
17475 21841 21844 28
17476 21841 21845 28
17477 21846 21847 28
17478 21846 21848 28
17479 21846 21849 28
17480 21846 21850 28
17481 21851 21852 28
17482 21851 21853 28
17483 21851 21854 28
17484 21851 21855 28
17485 21856 21857 28
17486 21856 21858 28
17487 21856 21859 28
17488 21856 21860 28
17489 21861 21862 28
17490 21861 21863 28
17491 21861 21864 28
17492 21861 21865 28
17493 21866 21867 28
17494 21866 21868 28
17495 21866 21869 28
17496 21866 21870 28
17497 21871 21872 28
17498 21871 21873 28
17499 21871 21874 28
17500 21871 21875 28
17501 21876 21877 28
17502 21876 21878 28
17503 21876 21879 28
17504 21876 21880 28
17505 21881 21882 28
17506 21881 21883 28
17507 21881 21884 28
17508 21881 21885 28
17509 21886 21887 28
17510 21886 21888 28
17511 21886 21889 28
17512 21886 21890 28
17513 21891 21892 28
17514 21891 21893 28
17515 21891 21894 28
17516 21891 21895 28
17517 21896 21897 28
17518 21896 21898 28
17519 21896 21899 28
17520 21896 21900 28
17521 21901 21902 28
17522 21901 21903 28
17523 21901 21904 28
17524 21901 21905 28
17525 21906 21907 28
17526 21906 21908 28
17527 21906 21909 28
17528 21906 21910 28
17529 21911 21912 28
17530 21911 21913 28
17531 21911 21914 28
17532 21911 21915 28
17533 21916 21917 28
17534 21916 21918 28
17535 21916 21919 28
17536 21916 21920 28
17537 21921 21922 28
17538 21921 21923 28
17539 21921 21924 28
17540 21921 21925 28
17541 21926 21927 28
17542 21926 21928 28
17543 21926 21929 28
17544 21926 21930 28
17545 21931 21932 28
17546 21931 21933 28
17547 21931 21934 28
17548 21931 21935 28
17549 21936 21937 28
17550 21936 21938 28
17551 21936 21939 28
17552 21936 21940 28
17553 21941 21942 28
17554 21941 21943 28
17555 21941 21944 28
17556 21941 21945 28
17557 21946 21947 28
17558 21946 21948 28
17559 21946 21949 28
17560 21946 21950 28
17561 21951 21952 28
17562 21951 21953 28
17563 21951 21954 28
17564 21951 21955 28
17565 21956 21957 28
17566 21956 21958 28
17567 21956 21959 28
17568 21956 21960 28
17569 21961 21962 28
17570 21961 21963 28
17571 21961 21964 28
17572 21961 21965 28
17573 21966 21967 28
17574 21966 21968 28
17575 21966 21969 28
17576 21966 21970 28
17577 21971 21972 28
17578 21971 21973 28
17579 21971 21974 28
17580 21971 21975 28
17581 21976 21977 28
17582 21976 21978 28
17583 21976 21979 28
17584 21976 21980 28
17585 21981 21982 28
17586 21981 21983 28
17587 21981 21984 28
17588 21981 21985 28
17589 21986 21987 28
17590 21986 21988 28
17591 21986 21989 28
17592 21986 21990 28
17593 21991 21992 28
17594 21991 21993 28
17595 21991 21994 28
17596 21991 21995 28
17597 21996 21997 28
17598 21996 21998 28
17599 21996 21999 28
17600 21996 22000 28
17601 22001 22002 28
17602 22001 22003 28
17603 22001 22004 28
17604 22001 22005 28
17605 22006 22007 28
17606 22006 22008 28
17607 22006 22009 28
17608 22006 22010 28
17609 22011 22012 28
17610 22011 22013 28
17611 22011 22014 28
17612 22011 22015 28
17613 22016 22017 28
17614 22016 22018 28
17615 22016 22019 28
17616 22016 22020 28
17617 22021 22022 28
17618 22021 22023 28
17619 22021 22024 28
17620 22021 22025 28
17621 22026 22027 28
17622 22026 22028 28
17623 22026 22029 28
17624 22026 22030 28
17625 22031 22032 28
17626 22031 22033 28
17627 22031 22034 28
17628 22031 22035 28
17629 22036 22037 28
17630 22036 22038 28
17631 22036 22039 28
17632 22036 22040 28
17633 22041 22042 28
17634 22041 22043 28
17635 22041 22044 28
17636 22041 22045 28
17637 22046 22047 28
17638 22046 22048 28
17639 22046 22049 28
17640 22046 22050 28
17641 22051 22052 28
17642 22051 22053 28
17643 22051 22054 28
17644 22051 22055 28
17645 22056 22057 28
17646 22056 22058 28
17647 22056 22059 28
17648 22056 22060 28
17649 22061 22062 28
17650 22061 22063 28
17651 22061 22064 28
17652 22061 22065 28
17653 22066 22067 28
17654 22066 22068 28
17655 22066 22069 28
17656 22066 22070 28
17657 22071 22072 28
17658 22071 22073 28
17659 22071 22074 28
17660 22071 22075 28
17661 22076 22077 28
17662 22076 22078 28
17663 22076 22079 28
17664 22076 22080 28
17665 22081 22082 28
17666 22081 22083 28
17667 22081 22084 28
17668 22081 22085 28
17669 22086 22087 28
17670 22086 22088 28
17671 22086 22089 28
17672 22086 22090 28
17673 22091 22092 28
17674 22091 22093 28
17675 22091 22094 28
17676 22091 22095 28
17677 22096 22097 28
17678 22096 22098 28
17679 22096 22099 28
17680 22096 22100 28
17681 22101 22102 28
17682 22101 22103 28
17683 22101 22104 28
17684 22101 22105 28
17685 22106 22107 28
17686 22106 22108 28
17687 22106 22109 28
17688 22106 22110 28
17689 22111 22112 28
17690 22111 22113 28
17691 22111 22114 28
17692 22111 22115 28
17693 22116 22117 28
17694 22116 22118 28
17695 22116 22119 28
17696 22116 22120 28
17697 22121 22122 28
17698 22121 22123 28
17699 22121 22124 28
17700 22121 22125 28
17701 22126 22127 28
17702 22126 22128 28
17703 22126 22129 28
17704 22126 22130 28
17705 22131 22132 28
17706 22131 22133 28
17707 22131 22134 28
17708 22131 22135 28
17709 22136 22137 28
17710 22136 22138 28
17711 22136 22139 28
17712 22136 22140 28
17713 22141 22142 28
17714 22141 22143 28
17715 22141 22144 28
17716 22141 22145 28
17717 22146 22147 28
17718 22146 22148 28
17719 22146 22149 28
17720 22146 22150 28
17721 22151 22152 28
17722 22151 22153 28
17723 22151 22154 28
17724 22151 22155 28
17725 22156 22157 28
17726 22156 22158 28
17727 22156 22159 28
17728 22156 22160 28
17729 22161 22162 28
17730 22161 22163 28
17731 22161 22164 28
17732 22161 22165 28
17733 22166 22167 28
17734 22166 22168 28
17735 22166 22169 28
17736 22166 22170 28
17737 22171 22172 28
17738 22171 22173 28
17739 22171 22174 28
17740 22171 22175 28
17741 22176 22177 28
17742 22176 22178 28
17743 22176 22179 28
17744 22176 22180 28
17745 22181 22182 28
17746 22181 22183 28
17747 22181 22184 28
17748 22181 22185 28
17749 22186 22187 28
17750 22186 22188 28
17751 22186 22189 28
17752 22186 22190 28
17753 22191 22192 28
17754 22191 22193 28
17755 22191 22194 28
17756 22191 22195 28
17757 22196 22197 28
17758 22196 22198 28
17759 22196 22199 28
17760 22196 22200 28
17761 22201 22202 28
17762 22201 22203 28
17763 22201 22204 28
17764 22201 22205 28
17765 22206 22207 28
17766 22206 22208 28
17767 22206 22209 28
17768 22206 22210 28
17769 22211 22212 28
17770 22211 22213 28
17771 22211 22214 28
17772 22211 22215 28
17773 22216 22217 28
17774 22216 22218 28
17775 22216 22219 28
17776 22216 22220 28
17777 22221 22222 28
17778 22221 22223 28
17779 22221 22224 28
17780 22221 22225 28
17781 22226 22227 28
17782 22226 22228 28
17783 22226 22229 28
17784 22226 22230 28
17785 22231 22232 28
17786 22231 22233 28
17787 22231 22234 28
17788 22231 22235 28
17789 22236 22237 28
17790 22236 22238 28
17791 22236 22239 28
17792 22236 22240 28
17793 22241 22242 28
17794 22241 22243 28
17795 22241 22244 28
17796 22241 22245 28
17797 22246 22247 28
17798 22246 22248 28
17799 22246 22249 28
17800 22246 22250 28
17801 22251 22252 28
17802 22251 22253 28
17803 22251 22254 28
17804 22251 22255 28
17805 22256 22257 28
17806 22256 22258 28
17807 22256 22259 28
17808 22256 22260 28
17809 22261 22262 28
17810 22261 22263 28
17811 22261 22264 28
17812 22261 22265 28
17813 22266 22267 28
17814 22266 22268 28
17815 22266 22269 28
17816 22266 22270 28
17817 22271 22272 28
17818 22271 22273 28
17819 22271 22274 28
17820 22271 22275 28
17821 22276 22277 28
17822 22276 22278 28
17823 22276 22279 28
17824 22276 22280 28
17825 22281 22282 28
17826 22281 22283 28
17827 22281 22284 28
17828 22281 22285 28
17829 22286 22287 28
17830 22286 22288 28
17831 22286 22289 28
17832 22286 22290 28
17833 22291 22292 28
17834 22291 22293 28
17835 22291 22294 28
17836 22291 22295 28
17837 22296 22297 28
17838 22296 22298 28
17839 22296 22299 28
17840 22296 22300 28
17841 22301 22302 28
17842 22301 22303 28
17843 22301 22304 28
17844 22301 22305 28
17845 22306 22307 28
17846 22306 22308 28
17847 22306 22309 28
17848 22306 22310 28
17849 22311 22312 28
17850 22311 22313 28
17851 22311 22314 28
17852 22311 22315 28
17853 22316 22317 28
17854 22316 22318 28
17855 22316 22319 28
17856 22316 22320 28
17857 22321 22322 28
17858 22321 22323 28
17859 22321 22324 28
17860 22321 22325 28
17861 22326 22327 28
17862 22326 22328 28
17863 22326 22329 28
17864 22326 22330 28
17865 22331 22332 28
17866 22331 22333 28
17867 22331 22334 28
17868 22331 22335 28
17869 22336 22337 28
17870 22336 22338 28
17871 22336 22339 28
17872 22336 22340 28
17873 22341 22342 28
17874 22341 22343 28
17875 22341 22344 28
17876 22341 22345 28
17877 22346 22347 28
17878 22346 22348 28
17879 22346 22349 28
17880 22346 22350 28
17881 22351 22352 28
17882 22351 22353 28
17883 22351 22354 28
17884 22351 22355 28
17885 22356 22357 28
17886 22356 22358 28
17887 22356 22359 28
17888 22356 22360 28
17889 22361 22362 28
17890 22361 22363 28
17891 22361 22364 28
17892 22361 22365 28
17893 22366 22367 28
17894 22366 22368 28
17895 22366 22369 28
17896 22366 22370 28
17897 22371 22372 28
17898 22371 22373 28
17899 22371 22374 28
17900 22371 22375 28
17901 22376 22377 28
17902 22376 22378 28
17903 22376 22379 28
17904 22376 22380 28
17905 22381 22382 28
17906 22381 22383 28
17907 22381 22384 28
17908 22381 22385 28
17909 22386 22387 28
17910 22386 22388 28
17911 22386 22389 28
17912 22386 22390 28
17913 22391 22392 28
17914 22391 22393 28
17915 22391 22394 28
17916 22391 22395 28
17917 22396 22397 28
17918 22396 22398 28
17919 22396 22399 28
17920 22396 22400 28
17921 22401 22402 28
17922 22401 22403 28
17923 22401 22404 28
17924 22401 22405 28
17925 22406 22407 28
17926 22406 22408 28
17927 22406 22409 28
17928 22406 22410 28
17929 22411 22412 28
17930 22411 22413 28
17931 22411 22414 28
17932 22411 22415 28
17933 22416 22417 28
17934 22416 22418 28
17935 22416 22419 28
17936 22416 22420 28
17937 22421 22422 28
17938 22421 22423 28
17939 22421 22424 28
17940 22421 22425 28
17941 22426 22427 28
17942 22426 22428 28
17943 22426 22429 28
17944 22426 22430 28
17945 22431 22432 28
17946 22431 22433 28
17947 22431 22434 28
17948 22431 22435 28
17949 22436 22437 28
17950 22436 22438 28
17951 22436 22439 28
17952 22436 22440 28
17953 22441 22442 28
17954 22441 22443 28
17955 22441 22444 28
17956 22441 22445 28
17957 22446 22447 28
17958 22446 22448 28
17959 22446 22449 28
17960 22446 22450 28
17961 22451 22452 28
17962 22451 22453 28
17963 22451 22454 28
17964 22451 22455 28
17965 22456 22457 28
17966 22456 22458 28
17967 22456 22459 28
17968 22456 22460 28
17969 22461 22462 28
17970 22461 22463 28
17971 22461 22464 28
17972 22461 22465 28
17973 22466 22467 28
17974 22466 22468 28
17975 22466 22469 28
17976 22466 22470 28
17977 22471 22472 28
17978 22471 22473 28
17979 22471 22474 28
17980 22471 22475 28
17981 22476 22477 28
17982 22476 22478 28
17983 22476 22479 28
17984 22476 22480 28
17985 22481 22482 28
17986 22481 22483 28
17987 22481 22484 28
17988 22481 22485 28
17989 22486 22487 28
17990 22486 22488 28
17991 22486 22489 28
17992 22486 22490 28
17993 22491 22492 28
17994 22491 22493 28
17995 22491 22494 28
17996 22491 22495 28
17997 22496 22497 28
17998 22496 22498 28
17999 22496 22499 28
18000 22496 22500 28
18001 22501 22502 28
18002 22501 22503 28
18003 22501 22504 28
18004 22501 22505 28
18005 22506 22507 28
18006 22506 22508 28
18007 22506 22509 28
18008 22506 22510 28
18009 22511 22512 28
18010 22511 22513 28
18011 22511 22514 28
18012 22511 22515 28
18013 22516 22517 28
18014 22516 22518 28
18015 22516 22519 28
18016 22516 22520 28
18017 22521 22522 28
18018 22521 22523 28
18019 22521 22524 28
18020 22521 22525 28
18021 22526 22527 28
18022 22526 22528 28
18023 22526 22529 28
18024 22526 22530 28
18025 22531 22532 28
18026 22531 22533 28
18027 22531 22534 28
18028 22531 22535 28
18029 22536 22537 28
18030 22536 22538 28
18031 22536 22539 28
18032 22536 22540 28
18033 22541 22542 28
18034 22541 22543 28
18035 22541 22544 28
18036 22541 22545 28
18037 22546 22547 28
18038 22546 22548 28
18039 22546 22549 28
18040 22546 22550 28
18041 22551 22552 28
18042 22551 22553 28
18043 22551 22554 28
18044 22551 22555 28
18045 22556 22557 28
18046 22556 22558 28
18047 22556 22559 28
18048 22556 22560 28
18049 22561 22562 28
18050 22561 22563 28
18051 22561 22564 28
18052 22561 22565 28
18053 22566 22567 28
18054 22566 22568 28
18055 22566 22569 28
18056 22566 22570 28
18057 22571 22572 28
18058 22571 22573 28
18059 22571 22574 28
18060 22571 22575 28
18061 22576 22577 28
18062 22576 22578 28
18063 22576 22579 28
18064 22576 22580 28
18065 22581 22582 28
18066 22581 22583 28
18067 22581 22584 28
18068 22581 22585 28
18069 22586 22587 28
18070 22586 22588 28
18071 22586 22589 28
18072 22586 22590 28
18073 22591 22592 28
18074 22591 22593 28
18075 22591 22594 28
18076 22591 22595 28
18077 22596 22597 28
18078 22596 22598 28
18079 22596 22599 28
18080 22596 22600 28
18081 22601 22602 28
18082 22601 22603 28
18083 22601 22604 28
18084 22601 22605 28
18085 22606 22607 28
18086 22606 22608 28
18087 22606 22609 28
18088 22606 22610 28
18089 22611 22612 28
18090 22611 22613 28
18091 22611 22614 28
18092 22611 22615 28
18093 22616 22617 28
18094 22616 22618 28
18095 22616 22619 28
18096 22616 22620 28
18097 22621 22622 28
18098 22621 22623 28
18099 22621 22624 28
18100 22621 22625 28
18101 22626 22627 28
18102 22626 22628 28
18103 22626 22629 28
18104 22626 22630 28
18105 22631 22632 28
18106 22631 22633 28
18107 22631 22634 28
18108 22631 22635 28
18109 22636 22637 28
18110 22636 22638 28
18111 22636 22639 28
18112 22636 22640 28
18113 22641 22642 28
18114 22641 22643 28
18115 22641 22644 28
18116 22641 22645 28
18117 22646 22647 28
18118 22646 22648 28
18119 22646 22649 28
18120 22646 22650 28
18121 22651 22652 28
18122 22651 22653 28
18123 22651 22654 28
18124 22651 22655 28
18125 22656 22657 28
18126 22656 22658 28
18127 22656 22659 28
18128 22656 22660 28
18129 22661 22662 28
18130 22661 22663 28
18131 22661 22664 28
18132 22661 22665 28
18133 22666 22667 28
18134 22666 22668 28
18135 22666 22669 28
18136 22666 22670 28
18137 22671 22672 28
18138 22671 22673 28
18139 22671 22674 28
18140 22671 22675 28
18141 22676 22677 28
18142 22676 22678 28
18143 22676 22679 28
18144 22676 22680 28
18145 22681 22682 28
18146 22681 22683 28
18147 22681 22684 28
18148 22681 22685 28
18149 22686 22687 28
18150 22686 22688 28
18151 22686 22689 28
18152 22686 22690 28
18153 22691 22692 28
18154 22691 22693 28
18155 22691 22694 28
18156 22691 22695 28
18157 22696 22697 28
18158 22696 22698 28
18159 22696 22699 28
18160 22696 22700 28
18161 22701 22702 28
18162 22701 22703 28
18163 22701 22704 28
18164 22701 22705 28
18165 22706 22707 28
18166 22706 22708 28
18167 22706 22709 28
18168 22706 22710 28
18169 22711 22712 28
18170 22711 22713 28
18171 22711 22714 28
18172 22711 22715 28
18173 22716 22717 28
18174 22716 22718 28
18175 22716 22719 28
18176 22716 22720 28
18177 22721 22722 28
18178 22721 22723 28
18179 22721 22724 28
18180 22721 22725 28
18181 22726 22727 28
18182 22726 22728 28
18183 22726 22729 28
18184 22726 22730 28
18185 22731 22732 28
18186 22731 22733 28
18187 22731 22734 28
18188 22731 22735 28
18189 22736 22737 28
18190 22736 22738 28
18191 22736 22739 28
18192 22736 22740 28
18193 22741 22742 28
18194 22741 22743 28
18195 22741 22744 28
18196 22741 22745 28
18197 22746 22747 28
18198 22746 22748 28
18199 22746 22749 28
18200 22746 22750 28
18201 22751 22752 28
18202 22751 22753 28
18203 22751 22754 28
18204 22751 22755 28
18205 22756 22757 28
18206 22756 22758 28
18207 22756 22759 28
18208 22756 22760 28
18209 22761 22762 28
18210 22761 22763 28
18211 22761 22764 28
18212 22761 22765 28
18213 22766 22767 28
18214 22766 22768 28
18215 22766 22769 28
18216 22766 22770 28
18217 22771 22772 28
18218 22771 22773 28
18219 22771 22774 28
18220 22771 22775 28
18221 22776 22777 28
18222 22776 22778 28
18223 22776 22779 28
18224 22776 22780 28
18225 22781 22782 28
18226 22781 22783 28
18227 22781 22784 28
18228 22781 22785 28
18229 22786 22787 28
18230 22786 22788 28
18231 22786 22789 28
18232 22786 22790 28
18233 22791 22792 28
18234 22791 22793 28
18235 22791 22794 28
18236 22791 22795 28
18237 22796 22797 28
18238 22796 22798 28
18239 22796 22799 28
18240 22796 22800 28
18241 22801 22802 28
18242 22801 22803 28
18243 22801 22804 28
18244 22801 22805 28
18245 22806 22807 28
18246 22806 22808 28
18247 22806 22809 28
18248 22806 22810 28
18249 22811 22812 28
18250 22811 22813 28
18251 22811 22814 28
18252 22811 22815 28
18253 22816 22817 28
18254 22816 22818 28
18255 22816 22819 28
18256 22816 22820 28
18257 22821 22822 28
18258 22821 22823 28
18259 22821 22824 28
18260 22821 22825 28
18261 22826 22827 28
18262 22826 22828 28
18263 22826 22829 28
18264 22826 22830 28
18265 22831 22832 28
18266 22831 22833 28
18267 22831 22834 28
18268 22831 22835 28
18269 22836 22837 28
18270 22836 22838 28
18271 22836 22839 28
18272 22836 22840 28
18273 22841 22842 28
18274 22841 22843 28
18275 22841 22844 28
18276 22841 22845 28
18277 22846 22847 28
18278 22846 22848 28
18279 22846 22849 28
18280 22846 22850 28
18281 22851 22852 28
18282 22851 22853 28
18283 22851 22854 28
18284 22851 22855 28
18285 22856 22857 28
18286 22856 22858 28
18287 22856 22859 28
18288 22856 22860 28
18289 22861 22862 28
18290 22861 22863 28
18291 22861 22864 28
18292 22861 22865 28
18293 22866 22867 28
18294 22866 22868 28
18295 22866 22869 28
18296 22866 22870 28
18297 22871 22872 28
18298 22871 22873 28
18299 22871 22874 28
18300 22871 22875 28
18301 22876 22877 28
18302 22876 22878 28
18303 22876 22879 28
18304 22876 22880 28
18305 22881 22882 28
18306 22881 22883 28
18307 22881 22884 28
18308 22881 22885 28
18309 22886 22887 28
18310 22886 22888 28
18311 22886 22889 28
18312 22886 22890 28
18313 22891 22892 28
18314 22891 22893 28
18315 22891 22894 28
18316 22891 22895 28
18317 22896 22897 28
18318 22896 22898 28
18319 22896 22899 28
18320 22896 22900 28
18321 22901 22902 28
18322 22901 22903 28
18323 22901 22904 28
18324 22901 22905 28
18325 22906 22907 28
18326 22906 22908 28
18327 22906 22909 28
18328 22906 22910 28
18329 22911 22912 28
18330 22911 22913 28
18331 22911 22914 28
18332 22911 22915 28
18333 22916 22917 28
18334 22916 22918 28
18335 22916 22919 28
18336 22916 22920 28
18337 22921 22922 28
18338 22921 22923 28
18339 22921 22924 28
18340 22921 22925 28
18341 22926 22927 28
18342 22926 22928 28
18343 22926 22929 28
18344 22926 22930 28
18345 22931 22932 28
18346 22931 22933 28
18347 22931 22934 28
18348 22931 22935 28
18349 22936 22937 28
18350 22936 22938 28
18351 22936 22939 28
18352 22936 22940 28
18353 22941 22942 28
18354 22941 22943 28
18355 22941 22944 28
18356 22941 22945 28
18357 22946 22947 28
18358 22946 22948 28
18359 22946 22949 28
18360 22946 22950 28
18361 22951 22952 28
18362 22951 22953 28
18363 22951 22954 28
18364 22951 22955 28
18365 22956 22957 28
18366 22956 22958 28
18367 22956 22959 28
18368 22956 22960 28
18369 22961 22962 28
18370 22961 22963 28
18371 22961 22964 28
18372 22961 22965 28
18373 22966 22967 28
18374 22966 22968 28
18375 22966 22969 28
18376 22966 22970 28
18377 22971 22972 28
18378 22971 22973 28
18379 22971 22974 28
18380 22971 22975 28
18381 22976 22977 28
18382 22976 22978 28
18383 22976 22979 28
18384 22976 22980 28
18385 22981 22982 28
18386 22981 22983 28
18387 22981 22984 28
18388 22981 22985 28
18389 22986 22987 28
18390 22986 22988 28
18391 22986 22989 28
18392 22986 22990 28
18393 22991 22992 28
18394 22991 22993 28
18395 22991 22994 28
18396 22991 22995 28
18397 22996 22997 28
18398 22996 22998 28
18399 22996 22999 28
18400 22996 23000 28
18401 23001 23002 28
18402 23001 23003 28
18403 23001 23004 28
18404 23001 23005 28
18405 23006 23007 28
18406 23006 23008 28
18407 23006 23009 28
18408 23006 23010 28
18409 23011 23012 28
18410 23011 23013 28
18411 23011 23014 28
18412 23011 23015 28
18413 23016 23017 28
18414 23016 23018 28
18415 23016 23019 28
18416 23016 23020 28
18417 23021 23022 28
18418 23021 23023 28
18419 23021 23024 28
18420 23021 23025 28
18421 23026 23027 28
18422 23026 23028 28
18423 23026 23029 28
18424 23026 23030 28
18425 23031 23032 28
18426 23031 23033 28
18427 23031 23034 28
18428 23031 23035 28
18429 23036 23037 28
18430 23036 23038 28
18431 23036 23039 28
18432 23036 23040 28
18433 23041 23042 28
18434 23041 23043 28
18435 23041 23044 28
18436 23041 23045 28
18437 23046 23047 28
18438 23046 23048 28
18439 23046 23049 28
18440 23046 23050 28
18441 23051 23052 28
18442 23051 23053 28
18443 23051 23054 28
18444 23051 23055 28
18445 23056 23057 28
18446 23056 23058 28
18447 23056 23059 28
18448 23056 23060 28
18449 23061 23062 28
18450 23061 23063 28
18451 23061 23064 28
18452 23061 23065 28
18453 23066 23067 28
18454 23066 23068 28
18455 23066 23069 28
18456 23066 23070 28
18457 23071 23072 28
18458 23071 23073 28
18459 23071 23074 28
18460 23071 23075 28
18461 23076 23077 28
18462 23076 23078 28
18463 23076 23079 28
18464 23076 23080 28
18465 23081 23082 28
18466 23081 23083 28
18467 23081 23084 28
18468 23081 23085 28
18469 23086 23087 28
18470 23086 23088 28
18471 23086 23089 28
18472 23086 23090 28
18473 23091 23092 28
18474 23091 23093 28
18475 23091 23094 28
18476 23091 23095 28
18477 23096 23097 28
18478 23096 23098 28
18479 23096 23099 28
18480 23096 23100 28
18481 23101 23102 28
18482 23101 23103 28
18483 23101 23104 28
18484 23101 23105 28
18485 23106 23107 28
18486 23106 23108 28
18487 23106 23109 28
18488 23106 23110 28
18489 23111 23112 28
18490 23111 23113 28
18491 23111 23114 28
18492 23111 23115 28
18493 23116 23117 28
18494 23116 23118 28
18495 23116 23119 28
18496 23116 23120 28
18497 23121 23122 28
18498 23121 23123 28
18499 23121 23124 28
18500 23121 23125 28
18501 23126 23127 28
18502 23126 23128 28
18503 23126 23129 28
18504 23126 23130 28
18505 23131 23132 28
18506 23131 23133 28
18507 23131 23134 28
18508 23131 23135 28
18509 23136 23137 28
18510 23136 23138 28
18511 23136 23139 28
18512 23136 23140 28
18513 23141 23142 28
18514 23141 23143 28
18515 23141 23144 28
18516 23141 23145 28
18517 23146 23147 28
18518 23146 23148 28
18519 23146 23149 28
18520 23146 23150 28
18521 23151 23152 28
18522 23151 23153 28
18523 23151 23154 28
18524 23151 23155 28
18525 23156 23157 28
18526 23156 23158 28
18527 23156 23159 28
18528 23156 23160 28
18529 23161 23162 28
18530 23161 23163 28
18531 23161 23164 28
18532 23161 23165 28
18533 23166 23167 28
18534 23166 23168 28
18535 23166 23169 28
18536 23166 23170 28
18537 23171 23172 28
18538 23171 23173 28
18539 23171 23174 28
18540 23171 23175 28
18541 23176 23177 28
18542 23176 23178 28
18543 23176 23179 28
18544 23176 23180 28
18545 23181 23182 28
18546 23181 23183 28
18547 23181 23184 28
18548 23181 23185 28
18549 23186 23187 28
18550 23186 23188 28
18551 23186 23189 28
18552 23186 23190 28
18553 23191 23192 28
18554 23191 23193 28
18555 23191 23194 28
18556 23191 23195 28
18557 23196 23197 28
18558 23196 23198 28
18559 23196 23199 28
18560 23196 23200 28
18561 23201 23202 28
18562 23201 23203 28
18563 23201 23204 28
18564 23201 23205 28
18565 23206 23207 28
18566 23206 23208 28
18567 23206 23209 28
18568 23206 23210 28
18569 23211 23212 28
18570 23211 23213 28
18571 23211 23214 28
18572 23211 23215 28
18573 23216 23217 28
18574 23216 23218 28
18575 23216 23219 28
18576 23216 23220 28
18577 23221 23222 28
18578 23221 23223 28
18579 23221 23224 28
18580 23221 23225 28
18581 23226 23227 28
18582 23226 23228 28
18583 23226 23229 28
18584 23226 23230 28
18585 23231 23232 28
18586 23231 23233 28
18587 23231 23234 28
18588 23231 23235 28
18589 23236 23237 28
18590 23236 23238 28
18591 23236 23239 28
18592 23236 23240 28
18593 23241 23242 28
18594 23241 23243 28
18595 23241 23244 28
18596 23241 23245 28
18597 23246 23247 28
18598 23246 23248 28
18599 23246 23249 28
18600 23246 23250 28
18601 23251 23252 28
18602 23251 23253 28
18603 23251 23254 28
18604 23251 23255 28
18605 23256 23257 28
18606 23256 23258 28
18607 23256 23259 28
18608 23256 23260 28
18609 23261 23262 28
18610 23261 23263 28
18611 23261 23264 28
18612 23261 23265 28
18613 23266 23267 28
18614 23266 23268 28
18615 23266 23269 28
18616 23266 23270 28
18617 23271 23272 28
18618 23271 23273 28
18619 23271 23274 28
18620 23271 23275 28
18621 23276 23277 28
18622 23276 23278 28
18623 23276 23279 28
18624 23276 23280 28
18625 23281 23282 28
18626 23281 23283 28
18627 23281 23284 28
18628 23281 23285 28
18629 23286 23287 28
18630 23286 23288 28
18631 23286 23289 28
18632 23286 23290 28
18633 23291 23292 28
18634 23291 23293 28
18635 23291 23294 28
18636 23291 23295 28
18637 23296 23297 28
18638 23296 23298 28
18639 23296 23299 28
18640 23296 23300 28
18641 23301 23302 28
18642 23301 23303 28
18643 23301 23304 28
18644 23301 23305 28
18645 23306 23307 28
18646 23306 23308 28
18647 23306 23309 28
18648 23306 23310 28
18649 23311 23312 28
18650 23311 23313 28
18651 23311 23314 28
18652 23311 23315 28
18653 23316 23317 28
18654 23316 23318 28
18655 23316 23319 28
18656 23316 23320 28
18657 23321 23322 28
18658 23321 23323 28
18659 23321 23324 28
18660 23321 23325 28
18661 23326 23327 28
18662 23326 23328 28
18663 23326 23329 28
18664 23326 23330 28
18665 23331 23332 28
18666 23331 23333 28
18667 23331 23334 28
18668 23331 23335 28
18669 23336 23337 28
18670 23336 23338 28
18671 23336 23339 28
18672 23336 23340 28
18673 23341 23342 28
18674 23341 23343 28
18675 23341 23344 28
18676 23341 23345 28
18677 23346 23347 28
18678 23346 23348 28
18679 23346 23349 28
18680 23346 23350 28
18681 23351 23352 28
18682 23351 23353 28
18683 23351 23354 28
18684 23351 23355 28
18685 23356 23357 28
18686 23356 23358 28
18687 23356 23359 28
18688 23356 23360 28
18689 23361 23362 28
18690 23361 23363 28
18691 23361 23364 28
18692 23361 23365 28
18693 23366 23367 28
18694 23366 23368 28
18695 23366 23369 28
18696 23366 23370 28
18697 23371 23372 28
18698 23371 23373 28
18699 23371 23374 28
18700 23371 23375 28
18701 23376 23377 28
18702 23376 23378 28
18703 23376 23379 28
18704 23376 23380 28
18705 23381 23382 28
18706 23381 23383 28
18707 23381 23384 28
18708 23381 23385 28
18709 23386 23387 28
18710 23386 23388 28
18711 23386 23389 28
18712 23386 23390 28
18713 23391 23392 28
18714 23391 23393 28
18715 23391 23394 28
18716 23391 23395 28
18717 23396 23397 28
18718 23396 23398 28
18719 23396 23399 28
18720 23396 23400 28
18721 23401 23402 28
18722 23401 23403 28
18723 23401 23404 28
18724 23401 23405 28
18725 23406 23407 28
18726 23406 23408 28
18727 23406 23409 28
18728 23406 23410 28
18729 23411 23412 28
18730 23411 23413 28
18731 23411 23414 28
18732 23411 23415 28
18733 23416 23417 28
18734 23416 23418 28
18735 23416 23419 28
18736 23416 23420 28
18737 23421 23422 28
18738 23421 23423 28
18739 23421 23424 28
18740 23421 23425 28
18741 23426 23427 28
18742 23426 23428 28
18743 23426 23429 28
18744 23426 23430 28
18745 23431 23432 28
18746 23431 23433 28
18747 23431 23434 28
18748 23431 23435 28
18749 23436 23437 28
18750 23436 23438 28
18751 23436 23439 28
18752 23436 23440 28
18753 23441 23442 28
18754 23441 23443 28
18755 23441 23444 28
18756 23441 23445 28
18757 23446 23447 28
18758 23446 23448 28
18759 23446 23449 28
18760 23446 23450 28
18761 23451 23452 28
18762 23451 23453 28
18763 23451 23454 28
18764 23451 23455 28
18765 23456 23457 28
18766 23456 23458 28
18767 23456 23459 28
18768 23456 23460 28
18769 23461 23462 28
18770 23461 23463 28
18771 23461 23464 28
18772 23461 23465 28
18773 23466 23467 28
18774 23466 23468 28
18775 23466 23469 28
18776 23466 23470 28
18777 23471 23472 28
18778 23471 23473 28
18779 23471 23474 28
18780 23471 23475 28
18781 23476 23477 28
18782 23476 23478 28
18783 23476 23479 28
18784 23476 23480 28
18785 23481 23482 28
18786 23481 23483 28
18787 23481 23484 28
18788 23481 23485 28
18789 23486 23487 28
18790 23486 23488 28
18791 23486 23489 28
18792 23486 23490 28
18793 23491 23492 28
18794 23491 23493 28
18795 23491 23494 28
18796 23491 23495 28
18797 23496 23497 28
18798 23496 23498 28
18799 23496 23499 28
18800 23496 23500 28
18801 23501 23502 28
18802 23501 23503 28
18803 23501 23504 28
18804 23501 23505 28
18805 23506 23507 28
18806 23506 23508 28
18807 23506 23509 28
18808 23506 23510 28
18809 23511 23512 28
18810 23511 23513 28
18811 23511 23514 28
18812 23511 23515 28
18813 23516 23517 28
18814 23516 23518 28
18815 23516 23519 28
18816 23516 23520 28
18817 23521 23522 28
18818 23521 23523 28
18819 23521 23524 28
18820 23521 23525 28
18821 23526 23527 28
18822 23526 23528 28
18823 23526 23529 28
18824 23526 23530 28
18825 23531 23532 28
18826 23531 23533 28
18827 23531 23534 28
18828 23531 23535 28
18829 23536 23537 28
18830 23536 23538 28
18831 23536 23539 28
18832 23536 23540 28
18833 23541 23542 28
18834 23541 23543 28
18835 23541 23544 28
18836 23541 23545 28
18837 23546 23547 28
18838 23546 23548 28
18839 23546 23549 28
18840 23546 23550 28
18841 23551 23552 28
18842 23551 23553 28
18843 23551 23554 28
18844 23551 23555 28
18845 23556 23557 28
18846 23556 23558 28
18847 23556 23559 28
18848 23556 23560 28
18849 23561 23562 28
18850 23561 23563 28
18851 23561 23564 28
18852 23561 23565 28
18853 23566 23567 28
18854 23566 23568 28
18855 23566 23569 28
18856 23566 23570 28
18857 23571 23572 28
18858 23571 23573 28
18859 23571 23574 28
18860 23571 23575 28
18861 23576 23577 28
18862 23576 23578 28
18863 23576 23579 28
18864 23576 23580 28
18865 23581 23582 28
18866 23581 23583 28
18867 23581 23584 28
18868 23581 23585 28
18869 23586 23587 28
18870 23586 23588 28
18871 23586 23589 28
18872 23586 23590 28
18873 23591 23592 28
18874 23591 23593 28
18875 23591 23594 28
18876 23591 23595 28
18877 23596 23597 28
18878 23596 23598 28
18879 23596 23599 28
18880 23596 23600 28
18881 23601 23602 28
18882 23601 23603 28
18883 23601 23604 28
18884 23601 23605 28
18885 23606 23607 28
18886 23606 23608 28
18887 23606 23609 28
18888 23606 23610 28
18889 23611 23612 28
18890 23611 23613 28
18891 23611 23614 28
18892 23611 23615 28
18893 23616 23617 28
18894 23616 23618 28
18895 23616 23619 28
18896 23616 23620 28
18897 23621 23622 28
18898 23621 23623 28
18899 23621 23624 28
18900 23621 23625 28
18901 23626 23627 28
18902 23626 23628 28
18903 23626 23629 28
18904 23626 23630 28
18905 23631 23632 28
18906 23631 23633 28
18907 23631 23634 28
18908 23631 23635 28
18909 23636 23637 28
18910 23636 23638 28
18911 23636 23639 28
18912 23636 23640 28
18913 23641 23642 28
18914 23641 23643 28
18915 23641 23644 28
18916 23641 23645 28
18917 23646 23647 28
18918 23646 23648 28
18919 23646 23649 28
18920 23646 23650 28
18921 23651 23652 28
18922 23651 23653 28
18923 23651 23654 28
18924 23651 23655 28
18925 23656 23657 28
18926 23656 23658 28
18927 23656 23659 28
18928 23656 23660 28
18929 23661 23662 28
18930 23661 23663 28
18931 23661 23664 28
18932 23661 23665 28
18933 23666 23667 28
18934 23666 23668 28
18935 23666 23669 28
18936 23666 23670 28
18937 23671 23672 28
18938 23671 23673 28
18939 23671 23674 28
18940 23671 23675 28
18941 23676 23677 28
18942 23676 23678 28
18943 23676 23679 28
18944 23676 23680 28
18945 23681 23682 28
18946 23681 23683 28
18947 23681 23684 28
18948 23681 23685 28
18949 23686 23687 28
18950 23686 23688 28
18951 23686 23689 28
18952 23686 23690 28
18953 23691 23692 28
18954 23691 23693 28
18955 23691 23694 28
18956 23691 23695 28
18957 23696 23697 28
18958 23696 23698 28
18959 23696 23699 28
18960 23696 23700 28
18961 23701 23702 28
18962 23701 23703 28
18963 23701 23704 28
18964 23701 23705 28
18965 23706 23707 28
18966 23706 23708 28
18967 23706 23709 28
18968 23706 23710 28
18969 23711 23712 28
18970 23711 23713 28
18971 23711 23714 28
18972 23711 23715 28
18973 23716 23717 28
18974 23716 23718 28
18975 23716 23719 28
18976 23716 23720 28
18977 23721 23722 28
18978 23721 23723 28
18979 23721 23724 28
18980 23721 23725 28
18981 23726 23727 28
18982 23726 23728 28
18983 23726 23729 28
18984 23726 23730 28
18985 23731 23732 28
18986 23731 23733 28
18987 23731 23734 28
18988 23731 23735 28
18989 23736 23737 28
18990 23736 23738 28
18991 23736 23739 28
18992 23736 23740 28
18993 23741 23742 28
18994 23741 23743 28
18995 23741 23744 28
18996 23741 23745 28
18997 23746 23747 28
18998 23746 23748 28
18999 23746 23749 28
19000 23746 23750 28
19001 23751 23752 28
19002 23751 23753 28
19003 23751 23754 28
19004 23751 23755 28
19005 23756 23757 28
19006 23756 23758 28
19007 23756 23759 28
19008 23756 23760 28
19009 23761 23762 28
19010 23761 23763 28
19011 23761 23764 28
19012 23761 23765 28
19013 23766 23767 28
19014 23766 23768 28
19015 23766 23769 28
19016 23766 23770 28
19017 23771 23772 28
19018 23771 23773 28
19019 23771 23774 28
19020 23771 23775 28
19021 23776 23777 28
19022 23776 23778 28
19023 23776 23779 28
19024 23776 23780 28
19025 23781 23782 28
19026 23781 23783 28
19027 23781 23784 28
19028 23781 23785 28
19029 23786 23787 28
19030 23786 23788 28
19031 23786 23789 28
19032 23786 23790 28
19033 23791 23792 28
19034 23791 23793 28
19035 23791 23794 28
19036 23791 23795 28
19037 23796 23797 28
19038 23796 23798 28
19039 23796 23799 28
19040 23796 23800 28
19041 23801 23802 28
19042 23801 23803 28
19043 23801 23804 28
19044 23801 23805 28
19045 23806 23807 28
19046 23806 23808 28
19047 23806 23809 28
19048 23806 23810 28
19049 23811 23812 28
19050 23811 23813 28
19051 23811 23814 28
19052 23811 23815 28
19053 23816 23817 28
19054 23816 23818 28
19055 23816 23819 28
19056 23816 23820 28
19057 23821 23822 28
19058 23821 23823 28
19059 23821 23824 28
19060 23821 23825 28
19061 23826 23827 28
19062 23826 23828 28
19063 23826 23829 28
19064 23826 23830 28
19065 23831 23832 28
19066 23831 23833 28
19067 23831 23834 28
19068 23831 23835 28
19069 23836 23837 28
19070 23836 23838 28
19071 23836 23839 28
19072 23836 23840 28
19073 23841 23842 28
19074 23841 23843 28
19075 23841 23844 28
19076 23841 23845 28
19077 23846 23847 28
19078 23846 23848 28
19079 23846 23849 28
19080 23846 23850 28
19081 23851 23852 28
19082 23851 23853 28
19083 23851 23854 28
19084 23851 23855 28
19085 23856 23857 28
19086 23856 23858 28
19087 23856 23859 28
19088 23856 23860 28
19089 23861 23862 28
19090 23861 23863 28
19091 23861 23864 28
19092 23861 23865 28
19093 23866 23867 28
19094 23866 23868 28
19095 23866 23869 28
19096 23866 23870 28
19097 23871 23872 28
19098 23871 23873 28
19099 23871 23874 28
19100 23871 23875 28
19101 23876 23877 28
19102 23876 23878 28
19103 23876 23879 28
19104 23876 23880 28
19105 23881 23882 28
19106 23881 23883 28
19107 23881 23884 28
19108 23881 23885 28
19109 23886 23887 28
19110 23886 23888 28
19111 23886 23889 28
19112 23886 23890 28
19113 23891 23892 28
19114 23891 23893 28
19115 23891 23894 28
19116 23891 23895 28
19117 23896 23897 28
19118 23896 23898 28
19119 23896 23899 28
19120 23896 23900 28
19121 23901 23902 28
19122 23901 23903 28
19123 23901 23904 28
19124 23901 23905 28
19125 23906 23907 28
19126 23906 23908 28
19127 23906 23909 28
19128 23906 23910 28
19129 23911 23912 28
19130 23911 23913 28
19131 23911 23914 28
19132 23911 23915 28
19133 23916 23917 28
19134 23916 23918 28
19135 23916 23919 28
19136 23916 23920 28
19137 23921 23922 28
19138 23921 23923 28
19139 23921 23924 28
19140 23921 23925 28
19141 23926 23927 28
19142 23926 23928 28
19143 23926 23929 28
19144 23926 23930 28
19145 23931 23932 28
19146 23931 23933 28
19147 23931 23934 28
19148 23931 23935 28
19149 23936 23937 28
19150 23936 23938 28
19151 23936 23939 28
19152 23936 23940 28
19153 23941 23942 28
19154 23941 23943 28
19155 23941 23944 28
19156 23941 23945 28
19157 23946 23947 28
19158 23946 23948 28
19159 23946 23949 28
19160 23946 23950 28
19161 23951 23952 28
19162 23951 23953 28
19163 23951 23954 28
19164 23951 23955 28
19165 23956 23957 28
19166 23956 23958 28
19167 23956 23959 28
19168 23956 23960 28
19169 23961 23962 28
19170 23961 23963 28
19171 23961 23964 28
19172 23961 23965 28
19173 23966 23967 28
19174 23966 23968 28
19175 23966 23969 28
19176 23966 23970 28
19177 23971 23972 28
19178 23971 23973 28
19179 23971 23974 28
19180 23971 23975 28
19181 23976 23977 28
19182 23976 23978 28
19183 23976 23979 28
19184 23976 23980 28
19185 23981 23982 28
19186 23981 23983 28
19187 23981 23984 28
19188 23981 23985 28
19189 23986 23987 28
19190 23986 23988 28
19191 23986 23989 28
19192 23986 23990 28
19193 23991 23992 28
19194 23991 23993 28
19195 23991 23994 28
19196 23991 23995 28
19197 23996 23997 28
19198 23996 23998 28
19199 23996 23999 28
19200 23996 24000 28
19201 24001 24002 28
19202 24001 24003 28
19203 24001 24004 28
19204 24001 24005 28
19205 24006 24007 28
19206 24006 24008 28
19207 24006 24009 28
19208 24006 24010 28
19209 24011 24012 28
19210 24011 24013 28
19211 24011 24014 28
19212 24011 24015 28
19213 24016 24017 28
19214 24016 24018 28
19215 24016 24019 28
19216 24016 24020 28
19217 24021 24022 28
19218 24021 24023 28
19219 24021 24024 28
19220 24021 24025 28
19221 24026 24027 28
19222 24026 24028 28
19223 24026 24029 28
19224 24026 24030 28
19225 24031 24032 28
19226 24031 24033 28
19227 24031 24034 28
19228 24031 24035 28
19229 24036 24037 28
19230 24036 24038 28
19231 24036 24039 28
19232 24036 24040 28
19233 24041 24042 28
19234 24041 24043 28
19235 24041 24044 28
19236 24041 24045 28
19237 24046 24047 28
19238 24046 24048 28
19239 24046 24049 28
19240 24046 24050 28
19241 24051 24052 28
19242 24051 24053 28
19243 24051 24054 28
19244 24051 24055 28
19245 24056 24057 28
19246 24056 24058 28
19247 24056 24059 28
19248 24056 24060 28
19249 24061 24062 28
19250 24061 24063 28
19251 24061 24064 28
19252 24061 24065 28
19253 24066 24067 28
19254 24066 24068 28
19255 24066 24069 28
19256 24066 24070 28
19257 24071 24072 28
19258 24071 24073 28
19259 24071 24074 28
19260 24071 24075 28
19261 24076 24077 28
19262 24076 24078 28
19263 24076 24079 28
19264 24076 24080 28
19265 24081 24082 28
19266 24081 24083 28
19267 24081 24084 28
19268 24081 24085 28
19269 24086 24087 28
19270 24086 24088 28
19271 24086 24089 28
19272 24086 24090 28
19273 24091 24092 28
19274 24091 24093 28
19275 24091 24094 28
19276 24091 24095 28
19277 24096 24097 28
19278 24096 24098 28
19279 24096 24099 28
19280 24096 24100 28
19281 24101 24102 28
19282 24101 24103 28
19283 24101 24104 28
19284 24101 24105 28
19285 24106 24107 28
19286 24106 24108 28
19287 24106 24109 28
19288 24106 24110 28
19289 24111 24112 28
19290 24111 24113 28
19291 24111 24114 28
19292 24111 24115 28
19293 24116 24117 28
19294 24116 24118 28
19295 24116 24119 28
19296 24116 24120 28
19297 24121 24122 28
19298 24121 24123 28
19299 24121 24124 28
19300 24121 24125 28
19301 24126 24127 28
19302 24126 24128 28
19303 24126 24129 28
19304 24126 24130 28
19305 24131 24132 28
19306 24131 24133 28
19307 24131 24134 28
19308 24131 24135 28
19309 24136 24137 28
19310 24136 24138 28
19311 24136 24139 28
19312 24136 24140 28
19313 24141 24142 28
19314 24141 24143 28
19315 24141 24144 28
19316 24141 24145 28
19317 24146 24147 28
19318 24146 24148 28
19319 24146 24149 28
19320 24146 24150 28
19321 24151 24152 28
19322 24151 24153 28
19323 24151 24154 28
19324 24151 24155 28
19325 24156 24157 28
19326 24156 24158 28
19327 24156 24159 28
19328 24156 24160 28
19329 24161 24162 28
19330 24161 24163 28
19331 24161 24164 28
19332 24161 24165 28
19333 24166 24167 28
19334 24166 24168 28
19335 24166 24169 28
19336 24166 24170 28
19337 24171 24172 28
19338 24171 24173 28
19339 24171 24174 28
19340 24171 24175 28
19341 24176 24177 28
19342 24176 24178 28
19343 24176 24179 28
19344 24176 24180 28
19345 24181 24182 28
19346 24181 24183 28
19347 24181 24184 28
19348 24181 24185 28
19349 24186 24187 28
19350 24186 24188 28
19351 24186 24189 28
19352 24186 24190 28
19353 24191 24192 28
19354 24191 24193 28
19355 24191 24194 28
19356 24191 24195 28
19357 24196 24197 28
19358 24196 24198 28
19359 24196 24199 28
19360 24196 24200 28
19361 24201 24202 28
19362 24201 24203 28
19363 24201 24204 28
19364 24201 24205 28
19365 24206 24207 28
19366 24206 24208 28
19367 24206 24209 28
19368 24206 24210 28
19369 24211 24212 28
19370 24211 24213 28
19371 24211 24214 28
19372 24211 24215 28
19373 24216 24217 28
19374 24216 24218 28
19375 24216 24219 28
19376 24216 24220 28
19377 24221 24222 28
19378 24221 24223 28
19379 24221 24224 28
19380 24221 24225 28
19381 24226 24227 28
19382 24226 24228 28
19383 24226 24229 28
19384 24226 24230 28
19385 24231 24232 28
19386 24231 24233 28
19387 24231 24234 28
19388 24231 24235 28
19389 24236 24237 28
19390 24236 24238 28
19391 24236 24239 28
19392 24236 24240 28
19393 24241 24242 28
19394 24241 24243 28
19395 24241 24244 28
19396 24241 24245 28
19397 24246 24247 28
19398 24246 24248 28
19399 24246 24249 28
19400 24246 24250 28
19401 24251 24252 28
19402 24251 24253 28
19403 24251 24254 28
19404 24251 24255 28
19405 24256 24257 28
19406 24256 24258 28
19407 24256 24259 28
19408 24256 24260 28
19409 24261 24262 28
19410 24261 24263 28
19411 24261 24264 28
19412 24261 24265 28
19413 24266 24267 28
19414 24266 24268 28
19415 24266 24269 28
19416 24266 24270 28
19417 24271 24272 28
19418 24271 24273 28
19419 24271 24274 28
19420 24271 24275 28
19421 24276 24277 28
19422 24276 24278 28
19423 24276 24279 28
19424 24276 24280 28
19425 24281 24282 28
19426 24281 24283 28
19427 24281 24284 28
19428 24281 24285 28
19429 24286 24287 28
19430 24286 24288 28
19431 24286 24289 28
19432 24286 24290 28
19433 24291 24292 28
19434 24291 24293 28
19435 24291 24294 28
19436 24291 24295 28
19437 24296 24297 28
19438 24296 24298 28
19439 24296 24299 28
19440 24296 24300 28
19441 24301 24302 28
19442 24301 24303 28
19443 24301 24304 28
19444 24301 24305 28
19445 24306 24307 28
19446 24306 24308 28
19447 24306 24309 28
19448 24306 24310 28
19449 24311 24312 28
19450 24311 24313 28
19451 24311 24314 28
19452 24311 24315 28
19453 24316 24317 28
19454 24316 24318 28
19455 24316 24319 28
19456 24316 24320 28
19457 24321 24322 28
19458 24321 24323 28
19459 24321 24324 28
19460 24321 24325 28
19461 24326 24327 28
19462 24326 24328 28
19463 24326 24329 28
19464 24326 24330 28
19465 24331 24332 28
19466 24331 24333 28
19467 24331 24334 28
19468 24331 24335 28
19469 24336 24337 28
19470 24336 24338 28
19471 24336 24339 28
19472 24336 24340 28
19473 24341 24342 28
19474 24341 24343 28
19475 24341 24344 28
19476 24341 24345 28
19477 24346 24347 28
19478 24346 24348 28
19479 24346 24349 28
19480 24346 24350 28
19481 24351 24352 28
19482 24351 24353 28
19483 24351 24354 28
19484 24351 24355 28
19485 24356 24357 28
19486 24356 24358 28
19487 24356 24359 28
19488 24356 24360 28
19489 24361 24362 28
19490 24361 24363 28
19491 24361 24364 28
19492 24361 24365 28
19493 24366 24367 28
19494 24366 24368 28
19495 24366 24369 28
19496 24366 24370 28
19497 24371 24372 28
19498 24371 24373 28
19499 24371 24374 28
19500 24371 24375 28
19501 24376 24377 28
19502 24376 24378 28
19503 24376 24379 28
19504 24376 24380 28
19505 24381 24382 28
19506 24381 24383 28
19507 24381 24384 28
19508 24381 24385 28
19509 24386 24387 28
19510 24386 24388 28
19511 24386 24389 28
19512 24386 24390 28
19513 24391 24392 28
19514 24391 24393 28
19515 24391 24394 28
19516 24391 24395 28
19517 24396 24397 28
19518 24396 24398 28
19519 24396 24399 28
19520 24396 24400 28
19521 24401 24402 28
19522 24401 24403 28
19523 24401 24404 28
19524 24401 24405 28
19525 24406 24407 28
19526 24406 24408 28
19527 24406 24409 28
19528 24406 24410 28
19529 24411 24412 28
19530 24411 24413 28
19531 24411 24414 28
19532 24411 24415 28
19533 24416 24417 28
19534 24416 24418 28
19535 24416 24419 28
19536 24416 24420 28
19537 24421 24422 28
19538 24421 24423 28
19539 24421 24424 28
19540 24421 24425 28
19541 24426 24427 28
19542 24426 24428 28
19543 24426 24429 28
19544 24426 24430 28
19545 24431 24432 28
19546 24431 24433 28
19547 24431 24434 28
19548 24431 24435 28
19549 24436 24437 28
19550 24436 24438 28
19551 24436 24439 28
19552 24436 24440 28
19553 24441 24442 28
19554 24441 24443 28
19555 24441 24444 28
19556 24441 24445 28
19557 24446 24447 28
19558 24446 24448 28
19559 24446 24449 28
19560 24446 24450 28
19561 24451 24452 28
19562 24451 24453 28
19563 24451 24454 28
19564 24451 24455 28
19565 24456 24457 28
19566 24456 24458 28
19567 24456 24459 28
19568 24456 24460 28
19569 24461 24462 28
19570 24461 24463 28
19571 24461 24464 28
19572 24461 24465 28
19573 24466 24467 28
19574 24466 24468 28
19575 24466 24469 28
19576 24466 24470 28
19577 24471 24472 28
19578 24471 24473 28
19579 24471 24474 28
19580 24471 24475 28
19581 24476 24477 28
19582 24476 24478 28
19583 24476 24479 28
19584 24476 24480 28
19585 24481 24482 28
19586 24481 24483 28
19587 24481 24484 28
19588 24481 24485 28
19589 24486 24487 28
19590 24486 24488 28
19591 24486 24489 28
19592 24486 24490 28
19593 24491 24492 28
19594 24491 24493 28
19595 24491 24494 28
19596 24491 24495 28
19597 24496 24497 28
19598 24496 24498 28
19599 24496 24499 28
19600 24496 24500 28
19601 24501 24502 28
19602 24501 24503 28
19603 24501 24504 28
19604 24501 24505 28
19605 24506 24507 28
19606 24506 24508 28
19607 24506 24509 28
19608 24506 24510 28
19609 24511 24512 28
19610 24511 24513 28
19611 24511 24514 28
19612 24511 24515 28
19613 24516 24517 28
19614 24516 24518 28
19615 24516 24519 28
19616 24516 24520 28
19617 24521 24522 28
19618 24521 24523 28
19619 24521 24524 28
19620 24521 24525 28
19621 24526 24527 28
19622 24526 24528 28
19623 24526 24529 28
19624 24526 24530 28
19625 24531 24532 28
19626 24531 24533 28
19627 24531 24534 28
19628 24531 24535 28
19629 24536 24537 28
19630 24536 24538 28
19631 24536 24539 28
19632 24536 24540 28
19633 24541 24542 28
19634 24541 24543 28
19635 24541 24544 28
19636 24541 24545 28
19637 24546 24547 28
19638 24546 24548 28
19639 24546 24549 28
19640 24546 24550 28
19641 24551 24552 28
19642 24551 24553 28
19643 24551 24554 28
19644 24551 24555 28
19645 24556 24557 28
19646 24556 24558 28
19647 24556 24559 28
19648 24556 24560 28
19649 24561 24562 28
19650 24561 24563 28
19651 24561 24564 28
19652 24561 24565 28
19653 24566 24567 28
19654 24566 24568 28
19655 24566 24569 28
19656 24566 24570 28
19657 24571 24572 28
19658 24571 24573 28
19659 24571 24574 28
19660 24571 24575 28
19661 24576 24577 28
19662 24576 24578 28
19663 24576 24579 28
19664 24576 24580 28
19665 24581 24582 28
19666 24581 24583 28
19667 24581 24584 28
19668 24581 24585 28
19669 24586 24587 28
19670 24586 24588 28
19671 24586 24589 28
19672 24586 24590 28
19673 24591 24592 28
19674 24591 24593 28
19675 24591 24594 28
19676 24591 24595 28
19677 24596 24597 28
19678 24596 24598 28
19679 24596 24599 28
19680 24596 24600 28
19681 24601 24602 28
19682 24601 24603 28
19683 24601 24604 28
19684 24601 24605 28
19685 24606 24607 28
19686 24606 24608 28
19687 24606 24609 28
19688 24606 24610 28
19689 24611 24612 28
19690 24611 24613 28
19691 24611 24614 28
19692 24611 24615 28
19693 24616 24617 28
19694 24616 24618 28
19695 24616 24619 28
19696 24616 24620 28
19697 24621 24622 28
19698 24621 24623 28
19699 24621 24624 28
19700 24621 24625 28
19701 24626 24627 28
19702 24626 24628 28
19703 24626 24629 28
19704 24626 24630 28
19705 24631 24632 28
19706 24631 24633 28
19707 24631 24634 28
19708 24631 24635 28
19709 24636 24637 28
19710 24636 24638 28
19711 24636 24639 28
19712 24636 24640 28
19713 24641 24642 28
19714 24641 24643 28
19715 24641 24644 28
19716 24641 24645 28
19717 24646 24647 28
19718 24646 24648 28
19719 24646 24649 28
19720 24646 24650 28
19721 24651 24652 28
19722 24651 24653 28
19723 24651 24654 28
19724 24651 24655 28
19725 24656 24657 28
19726 24656 24658 28
19727 24656 24659 28
19728 24656 24660 28
19729 24661 24662 28
19730 24661 24663 28
19731 24661 24664 28
19732 24661 24665 28
19733 24666 24667 28
19734 24666 24668 28
19735 24666 24669 28
19736 24666 24670 28
19737 24671 24672 28
19738 24671 24673 28
19739 24671 24674 28
19740 24671 24675 28
19741 24676 24677 28
19742 24676 24678 28
19743 24676 24679 28
19744 24676 24680 28
19745 24681 24682 28
19746 24681 24683 28
19747 24681 24684 28
19748 24681 24685 28
19749 24686 24687 28
19750 24686 24688 28
19751 24686 24689 28
19752 24686 24690 28
19753 24691 24692 28
19754 24691 24693 28
19755 24691 24694 28
19756 24691 24695 28
19757 24696 24697 28
19758 24696 24698 28
19759 24696 24699 28
19760 24696 24700 28
19761 24701 24702 28
19762 24701 24703 28
19763 24701 24704 28
19764 24701 24705 28
19765 24706 24707 28
19766 24706 24708 28
19767 24706 24709 28
19768 24706 24710 28
19769 24711 24712 28
19770 24711 24713 28
19771 24711 24714 28
19772 24711 24715 28
19773 24716 24717 28
19774 24716 24718 28
19775 24716 24719 28
19776 24716 24720 28
19777 24721 24722 28
19778 24721 24723 28
19779 24721 24724 28
19780 24721 24725 28
19781 24726 24727 28
19782 24726 24728 28
19783 24726 24729 28
19784 24726 24730 28
19785 24731 24732 28
19786 24731 24733 28
19787 24731 24734 28
19788 24731 24735 28
19789 24736 24737 28
19790 24736 24738 28
19791 24736 24739 28
19792 24736 24740 28
19793 24741 24742 28
19794 24741 24743 28
19795 24741 24744 28
19796 24741 24745 28
19797 24746 24747 28
19798 24746 24748 28
19799 24746 24749 28
19800 24746 24750 28
19801 24751 24752 28
19802 24751 24753 28
19803 24751 24754 28
19804 24751 24755 28
19805 24756 24757 28
19806 24756 24758 28
19807 24756 24759 28
19808 24756 24760 28
19809 24761 24762 28
19810 24761 24763 28
19811 24761 24764 28
19812 24761 24765 28
19813 24766 24767 28
19814 24766 24768 28
19815 24766 24769 28
19816 24766 24770 28
19817 24771 24772 28
19818 24771 24773 28
19819 24771 24774 28
19820 24771 24775 28
19821 24776 24777 28
19822 24776 24778 28
19823 24776 24779 28
19824 24776 24780 28
19825 24781 24782 28
19826 24781 24783 28
19827 24781 24784 28
19828 24781 24785 28
19829 24786 24787 28
19830 24786 24788 28
19831 24786 24789 28
19832 24786 24790 28
19833 24791 24792 28
19834 24791 24793 28
19835 24791 24794 28
19836 24791 24795 28
19837 24796 24797 28
19838 24796 24798 28
19839 24796 24799 28
19840 24796 24800 28
19841 24801 24802 28
19842 24801 24803 28
19843 24801 24804 28
19844 24801 24805 28
19845 24806 24807 28
19846 24806 24808 28
19847 24806 24809 28
19848 24806 24810 28
19849 24811 24812 28
19850 24811 24813 28
19851 24811 24814 28
19852 24811 24815 28
19853 24816 24817 28
19854 24816 24818 28
19855 24816 24819 28
19856 24816 24820 28
19857 24821 24822 28
19858 24821 24823 28
19859 24821 24824 28
19860 24821 24825 28
19861 24826 24827 28
19862 24826 24828 28
19863 24826 24829 28
19864 24826 24830 28
19865 24831 24832 28
19866 24831 24833 28
19867 24831 24834 28
19868 24831 24835 28
19869 24836 24837 28
19870 24836 24838 28
19871 24836 24839 28
19872 24836 24840 28
19873 24841 24842 28
19874 24841 24843 28
19875 24841 24844 28
19876 24841 24845 28
19877 24846 24847 28
19878 24846 24848 28
19879 24846 24849 28
19880 24846 24850 28
19881 24851 24852 28
19882 24851 24853 28
19883 24851 24854 28
19884 24851 24855 28
19885 24856 24857 28
19886 24856 24858 28
19887 24856 24859 28
19888 24856 24860 28
19889 24861 24862 28
19890 24861 24863 28
19891 24861 24864 28
19892 24861 24865 28
19893 24866 24867 28
19894 24866 24868 28
19895 24866 24869 28
19896 24866 24870 28
19897 24871 24872 28
19898 24871 24873 28
19899 24871 24874 28
19900 24871 24875 28
19901 24876 24877 28
19902 24876 24878 28
19903 24876 24879 28
19904 24876 24880 28
19905 24881 24882 28
19906 24881 24883 28
19907 24881 24884 28
19908 24881 24885 28
19909 24886 24887 28
19910 24886 24888 28
19911 24886 24889 28
19912 24886 24890 28
19913 24891 24892 28
19914 24891 24893 28
19915 24891 24894 28
19916 24891 24895 28
19917 24896 24897 28
19918 24896 24898 28
19919 24896 24899 28
19920 24896 24900 28
19921 24901 24902 28
19922 24901 24903 28
19923 24901 24904 28
19924 24901 24905 28
19925 24906 24907 28
19926 24906 24908 28
19927 24906 24909 28
19928 24906 24910 28
19929 24911 24912 28
19930 24911 24913 28
19931 24911 24914 28
19932 24911 24915 28
19933 24916 24917 28
19934 24916 24918 28
19935 24916 24919 28
19936 24916 24920 28
19937 24921 24922 28
19938 24921 24923 28
19939 24921 24924 28
19940 24921 24925 28
19941 24926 24927 28
19942 24926 24928 28
19943 24926 24929 28
19944 24926 24930 28
19945 24931 24932 28
19946 24931 24933 28
19947 24931 24934 28
19948 24931 24935 28
19949 24936 24937 28
19950 24936 24938 28
19951 24936 24939 28
19952 24936 24940 28
19953 24941 24942 28
19954 24941 24943 28
19955 24941 24944 28
19956 24941 24945 28
19957 24946 24947 28
19958 24946 24948 28
19959 24946 24949 28
19960 24946 24950 28
19961 24951 24952 28
19962 24951 24953 28
19963 24951 24954 28
19964 24951 24955 28
19965 24956 24957 28
19966 24956 24958 28
19967 24956 24959 28
19968 24956 24960 28
19969 24961 24962 28
19970 24961 24963 28
19971 24961 24964 28
19972 24961 24965 28
19973 24966 24967 28
19974 24966 24968 28
19975 24966 24969 28
19976 24966 24970 28
19977 24971 24972 28
19978 24971 24973 28
19979 24971 24974 28
19980 24971 24975 28
19981 24976 24977 28
19982 24976 24978 28
19983 24976 24979 28
19984 24976 24980 28
19985 24981 24982 28
19986 24981 24983 28
19987 24981 24984 28
19988 24981 24985 28
19989 24986 24987 28
19990 24986 24988 28
19991 24986 24989 28
19992 24986 24990 28
19993 24991 24992 28
19994 24991 24993 28
19995 24991 24994 28
19996 24991 24995 28
19997 24996 24997 28
19998 24996 24998 28
19999 24996 24999 28
20000 24996 25000 28
20001 25001 25002 28
20002 25001 25003 28
20003 25001 25004 28
20004 25001 25005 28
20005 25006 25007 28
20006 25006 25008 28
20007 25006 25009 28
20008 25006 25010 28
20009 25011 25012 28
20010 25011 25013 28
20011 25011 25014 28
20012 25011 25015 28
20013 25016 25017 28
20014 25016 25018 28
20015 25016 25019 28
20016 25016 25020 28
20017 25021 25022 28
20018 25021 25023 28
20019 25021 25024 28
20020 25021 25025 28
20021 25026 25027 28
20022 25026 25028 28
20023 25026 25029 28
20024 25026 25030 28
20025 25031 25032 28
20026 25031 25033 28
20027 25031 25034 28
20028 25031 25035 28
20029 25036 25037 28
20030 25036 25038 28
20031 25036 25039 28
20032 25036 25040 28
20033 25041 25042 28
20034 25041 25043 28
20035 25041 25044 28
20036 25041 25045 28
20037 25046 25047 28
20038 25046 25048 28
20039 25046 25049 28
20040 25046 25050 28
20041 25051 25052 28
20042 25051 25053 28
20043 25051 25054 28
20044 25051 25055 28
20045 25056 25057 28
20046 25056 25058 28
20047 25056 25059 28
20048 25056 25060 28
20049 25061 25062 28
20050 25061 25063 28
20051 25061 25064 28
20052 25061 25065 28
20053 25066 25067 28
20054 25066 25068 28
20055 25066 25069 28
20056 25066 25070 28
20057 25071 25072 28
20058 25071 25073 28
20059 25071 25074 28
20060 25071 25075 28
20061 25076 25077 28
20062 25076 25078 28
20063 25076 25079 28
20064 25076 25080 28
20065 25081 25082 28
20066 25081 25083 28
20067 25081 25084 28
20068 25081 25085 28
20069 25086 25087 28
20070 25086 25088 28
20071 25086 25089 28
20072 25086 25090 28
20073 25091 25092 28
20074 25091 25093 28
20075 25091 25094 28
20076 25091 25095 28
20077 25096 25097 28
20078 25096 25098 28
20079 25096 25099 28
20080 25096 25100 28
20081 25101 25102 28
20082 25101 25103 28
20083 25101 25104 28
20084 25101 25105 28
20085 25106 25107 28
20086 25106 25108 28
20087 25106 25109 28
20088 25106 25110 28
20089 25111 25112 28
20090 25111 25113 28
20091 25111 25114 28
20092 25111 25115 28
20093 25116 25117 28
20094 25116 25118 28
20095 25116 25119 28
20096 25116 25120 28
20097 25121 25122 28
20098 25121 25123 28
20099 25121 25124 28
20100 25121 25125 28
20101 25126 25127 28
20102 25126 25128 28
20103 25126 25129 28
20104 25126 25130 28
20105 25131 25132 28
20106 25131 25133 28
20107 25131 25134 28
20108 25131 25135 28
20109 25136 25137 28
20110 25136 25138 28
20111 25136 25139 28
20112 25136 25140 28
20113 25141 25142 28
20114 25141 25143 28
20115 25141 25144 28
20116 25141 25145 28
20117 25146 25147 28
20118 25146 25148 28
20119 25146 25149 28
20120 25146 25150 28
20121 25151 25152 28
20122 25151 25153 28
20123 25151 25154 28
20124 25151 25155 28
20125 25156 25157 28
20126 25156 25158 28
20127 25156 25159 28
20128 25156 25160 28
20129 25161 25162 28
20130 25161 25163 28
20131 25161 25164 28
20132 25161 25165 28
20133 25166 25167 28
20134 25166 25168 28
20135 25166 25169 28
20136 25166 25170 28
20137 25171 25172 28
20138 25171 25173 28
20139 25171 25174 28
20140 25171 25175 28
20141 25176 25177 28
20142 25176 25178 28
20143 25176 25179 28
20144 25176 25180 28
20145 25181 25182 28
20146 25181 25183 28
20147 25181 25184 28
20148 25181 25185 28
20149 25186 25187 28
20150 25186 25188 28
20151 25186 25189 28
20152 25186 25190 28
20153 25191 25192 28
20154 25191 25193 28
20155 25191 25194 28
20156 25191 25195 28
20157 25196 25197 28
20158 25196 25198 28
20159 25196 25199 28
20160 25196 25200 28
20161 25201 25202 28
20162 25201 25203 28
20163 25201 25204 28
20164 25201 25205 28
20165 25206 25207 28
20166 25206 25208 28
20167 25206 25209 28
20168 25206 25210 28
20169 25211 25212 28
20170 25211 25213 28
20171 25211 25214 28
20172 25211 25215 28
20173 25216 25217 28
20174 25216 25218 28
20175 25216 25219 28
20176 25216 25220 28
20177 25221 25222 28
20178 25221 25223 28
20179 25221 25224 28
20180 25221 25225 28
20181 25226 25227 28
20182 25226 25228 28
20183 25226 25229 28
20184 25226 25230 28
20185 25231 25232 28
20186 25231 25233 28
20187 25231 25234 28
20188 25231 25235 28
20189 25236 25237 28
20190 25236 25238 28
20191 25236 25239 28
20192 25236 25240 28
20193 25241 25242 28
20194 25241 25243 28
20195 25241 25244 28
20196 25241 25245 28
20197 25246 25247 28
20198 25246 25248 28
20199 25246 25249 28
20200 25246 25250 28
20201 25251 25252 28
20202 25251 25253 28
20203 25251 25254 28
20204 25251 25255 28
20205 25256 25257 28
20206 25256 25258 28
20207 25256 25259 28
20208 25256 25260 28
20209 25261 25262 28
20210 25261 25263 28
20211 25261 25264 28
20212 25261 25265 28
20213 25266 25267 28
20214 25266 25268 28
20215 25266 25269 28
20216 25266 25270 28
20217 25271 25272 28
20218 25271 25273 28
20219 25271 25274 28
20220 25271 25275 28
20221 25276 25277 28
20222 25276 25278 28
20223 25276 25279 28
20224 25276 25280 28
20225 25281 25282 28
20226 25281 25283 28
20227 25281 25284 28
20228 25281 25285 28
20229 25286 25287 28
20230 25286 25288 28
20231 25286 25289 28
20232 25286 25290 28
20233 25291 25292 28
20234 25291 25293 28
20235 25291 25294 28
20236 25291 25295 28
20237 25296 25297 28
20238 25296 25298 28
20239 25296 25299 28
20240 25296 25300 28
20241 25301 25302 28
20242 25301 25303 28
20243 25301 25304 28
20244 25301 25305 28
20245 25306 25307 28
20246 25306 25308 28
20247 25306 25309 28
20248 25306 25310 28
20249 25311 25312 28
20250 25311 25313 28
20251 25311 25314 28
20252 25311 25315 28
20253 25316 25317 28
20254 25316 25318 28
20255 25316 25319 28
20256 25316 25320 28
20257 25321 25322 28
20258 25321 25323 28
20259 25321 25324 28
20260 25321 25325 28
20261 25326 25327 28
20262 25326 25328 28
20263 25326 25329 28
20264 25326 25330 28
20265 25331 25332 28
20266 25331 25333 28
20267 25331 25334 28
20268 25331 25335 28
20269 25336 25337 28
20270 25336 25338 28
20271 25336 25339 28
20272 25336 25340 28
20273 25341 25342 28
20274 25341 25343 28
20275 25341 25344 28
20276 25341 25345 28
20277 25346 25347 28
20278 25346 25348 28
20279 25346 25349 28
20280 25346 25350 28
20281 25351 25352 28
20282 25351 25353 28
20283 25351 25354 28
20284 25351 25355 28
20285 25356 25357 28
20286 25356 25358 28
20287 25356 25359 28
20288 25356 25360 28
20289 25361 25362 28
20290 25361 25363 28
20291 25361 25364 28
20292 25361 25365 28
20293 25366 25367 28
20294 25366 25368 28
20295 25366 25369 28
20296 25366 25370 28
20297 25371 25372 28
20298 25371 25373 28
20299 25371 25374 28
20300 25371 25375 28
20301 25376 25377 28
20302 25376 25378 28
20303 25376 25379 28
20304 25376 25380 28
20305 25381 25382 28
20306 25381 25383 28
20307 25381 25384 28
20308 25381 25385 28
20309 25386 25387 28
20310 25386 25388 28
20311 25386 25389 28
20312 25386 25390 28
20313 25391 25392 28
20314 25391 25393 28
20315 25391 25394 28
20316 25391 25395 28
20317 25396 25397 28
20318 25396 25398 28
20319 25396 25399 28
20320 25396 25400 28
20321 25401 25402 28
20322 25401 25403 28
20323 25401 25404 28
20324 25401 25405 28
20325 25406 25407 28
20326 25406 25408 28
20327 25406 25409 28
20328 25406 25410 28
20329 25411 25412 28
20330 25411 25413 28
20331 25411 25414 28
20332 25411 25415 28
20333 25416 25417 28
20334 25416 25418 28
20335 25416 25419 28
20336 25416 25420 28
20337 25421 25422 28
20338 25421 25423 28
20339 25421 25424 28
20340 25421 25425 28
20341 25426 25427 28
20342 25426 25428 28
20343 25426 25429 28
20344 25426 25430 28
20345 25431 25432 28
20346 25431 25433 28
20347 25431 25434 28
20348 25431 25435 28
20349 25436 25437 28
20350 25436 25438 28
20351 25436 25439 28
20352 25436 25440 28
20353 25441 25442 28
20354 25441 25443 28
20355 25441 25444 28
20356 25441 25445 28
20357 25446 25447 28
20358 25446 25448 28
20359 25446 25449 28
20360 25446 25450 28
20361 25451 25452 28
20362 25451 25453 28
20363 25451 25454 28
20364 25451 25455 28
20365 25456 25457 28
20366 25456 25458 28
20367 25456 25459 28
20368 25456 25460 28
20369 25461 25462 28
20370 25461 25463 28
20371 25461 25464 28
20372 25461 25465 28
20373 25466 25467 28
20374 25466 25468 28
20375 25466 25469 28
20376 25466 25470 28
20377 25471 25472 28
20378 25471 25473 28
20379 25471 25474 28
20380 25471 25475 28
20381 25476 25477 28
20382 25476 25478 28
20383 25476 25479 28
20384 25476 25480 28
20385 25481 25482 28
20386 25481 25483 28
20387 25481 25484 28
20388 25481 25485 28
20389 25486 25487 28
20390 25486 25488 28
20391 25486 25489 28
20392 25486 25490 28
20393 25491 25492 28
20394 25491 25493 28
20395 25491 25494 28
20396 25491 25495 28
20397 25496 25497 28
20398 25496 25498 28
20399 25496 25499 28
20400 25496 25500 28
20401 25501 25502 28
20402 25501 25503 28
20403 25501 25504 28
20404 25501 25505 28
20405 25506 25507 28
20406 25506 25508 28
20407 25506 25509 28
20408 25506 25510 28
20409 25511 25512 28
20410 25511 25513 28
20411 25511 25514 28
20412 25511 25515 28
20413 25516 25517 28
20414 25516 25518 28
20415 25516 25519 28
20416 25516 25520 28
20417 25521 25522 28
20418 25521 25523 28
20419 25521 25524 28
20420 25521 25525 28
20421 25526 25527 28
20422 25526 25528 28
20423 25526 25529 28
20424 25526 25530 28
20425 25531 25532 28
20426 25531 25533 28
20427 25531 25534 28
20428 25531 25535 28
20429 25536 25537 28
20430 25536 25538 28
20431 25536 25539 28
20432 25536 25540 28
20433 25541 25542 28
20434 25541 25543 28
20435 25541 25544 28
20436 25541 25545 28
20437 25546 25547 28
20438 25546 25548 28
20439 25546 25549 28
20440 25546 25550 28
20441 25551 25552 28
20442 25551 25553 28
20443 25551 25554 28
20444 25551 25555 28
20445 25556 25557 28
20446 25556 25558 28
20447 25556 25559 28
20448 25556 25560 28
20449 25561 25562 28
20450 25561 25563 28
20451 25561 25564 28
20452 25561 25565 28
20453 25566 25567 28
20454 25566 25568 28
20455 25566 25569 28
20456 25566 25570 28
20457 25571 25572 28
20458 25571 25573 28
20459 25571 25574 28
20460 25571 25575 28
20461 25576 25577 28
20462 25576 25578 28
20463 25576 25579 28
20464 25576 25580 28
20465 25581 25582 28
20466 25581 25583 28
20467 25581 25584 28
20468 25581 25585 28
20469 25586 25587 28
20470 25586 25588 28
20471 25586 25589 28
20472 25586 25590 28
20473 25591 25592 28
20474 25591 25593 28
20475 25591 25594 28
20476 25591 25595 28
20477 25596 25597 28
20478 25596 25598 28
20479 25596 25599 28
20480 25596 25600 28
20481 25601 25602 28
20482 25601 25603 28
20483 25601 25604 28
20484 25601 25605 28
20485 25606 25607 28
20486 25606 25608 28
20487 25606 25609 28
20488 25606 25610 28
20489 25611 25612 28
20490 25611 25613 28
20491 25611 25614 28
20492 25611 25615 28
20493 25616 25617 28
20494 25616 25618 28
20495 25616 25619 28
20496 25616 25620 28
20497 25621 25622 28
20498 25621 25623 28
20499 25621 25624 28
20500 25621 25625 28
20501 25626 25627 28
20502 25626 25628 28
20503 25626 25629 28
20504 25626 25630 28
20505 25631 25632 28
20506 25631 25633 28
20507 25631 25634 28
20508 25631 25635 28
20509 25636 25637 28
20510 25636 25638 28
20511 25636 25639 28
20512 25636 25640 28
20513 25641 25642 28
20514 25641 25643 28
20515 25641 25644 28
20516 25641 25645 28
20517 25646 25647 28
20518 25646 25648 28
20519 25646 25649 28
20520 25646 25650 28
20521 25651 25652 28
20522 25651 25653 28
20523 25651 25654 28
20524 25651 25655 28
20525 25656 25657 28
20526 25656 25658 28
20527 25656 25659 28
20528 25656 25660 28
20529 25661 25662 28
20530 25661 25663 28
20531 25661 25664 28
20532 25661 25665 28
20533 25666 25667 28
20534 25666 25668 28
20535 25666 25669 28
20536 25666 25670 28
20537 25671 25672 28
20538 25671 25673 28
20539 25671 25674 28
20540 25671 25675 28
20541 25676 25677 28
20542 25676 25678 28
20543 25676 25679 28
20544 25676 25680 28
20545 25681 25682 28
20546 25681 25683 28
20547 25681 25684 28
20548 25681 25685 28
20549 25686 25687 28
20550 25686 25688 28
20551 25686 25689 28
20552 25686 25690 28
20553 25691 25692 28
20554 25691 25693 28
20555 25691 25694 28
20556 25691 25695 28
20557 25696 25697 28
20558 25696 25698 28
20559 25696 25699 28
20560 25696 25700 28
20561 25701 25702 28
20562 25701 25703 28
20563 25701 25704 28
20564 25701 25705 28
20565 25706 25707 28
20566 25706 25708 28
20567 25706 25709 28
20568 25706 25710 28
20569 25711 25712 28
20570 25711 25713 28
20571 25711 25714 28
20572 25711 25715 28
20573 25716 25717 28
20574 25716 25718 28
20575 25716 25719 28
20576 25716 25720 28
20577 25721 25722 28
20578 25721 25723 28
20579 25721 25724 28
20580 25721 25725 28
20581 25726 25727 28
20582 25726 25728 28
20583 25726 25729 28
20584 25726 25730 28
20585 25731 25732 28
20586 25731 25733 28
20587 25731 25734 28
20588 25731 25735 28
20589 25736 25737 28
20590 25736 25738 28
20591 25736 25739 28
20592 25736 25740 28
20593 25741 25742 28
20594 25741 25743 28
20595 25741 25744 28
20596 25741 25745 28
20597 25746 25747 28
20598 25746 25748 28
20599 25746 25749 28
20600 25746 25750 28
20601 25751 25752 28
20602 25751 25753 28
20603 25751 25754 28
20604 25751 25755 28
20605 25756 25757 28
20606 25756 25758 28
20607 25756 25759 28
20608 25756 25760 28
20609 25761 25762 28
20610 25761 25763 28
20611 25761 25764 28
20612 25761 25765 28
20613 25766 25767 28
20614 25766 25768 28
20615 25766 25769 28
20616 25766 25770 28
20617 25771 25772 28
20618 25771 25773 28
20619 25771 25774 28
20620 25771 25775 28
20621 25776 25777 28
20622 25776 25778 28
20623 25776 25779 28
20624 25776 25780 28
20625 25781 25782 28
20626 25781 25783 28
20627 25781 25784 28
20628 25781 25785 28
20629 25786 25787 28
20630 25786 25788 28
20631 25786 25789 28
20632 25786 25790 28
20633 25791 25792 28
20634 25791 25793 28
20635 25791 25794 28
20636 25791 25795 28
20637 25796 25797 28
20638 25796 25798 28
20639 25796 25799 28
20640 25796 25800 28
20641 25801 25802 28
20642 25801 25803 28
20643 25801 25804 28
20644 25801 25805 28
20645 25806 25807 28
20646 25806 25808 28
20647 25806 25809 28
20648 25806 25810 28
20649 25811 25812 28
20650 25811 25813 28
20651 25811 25814 28
20652 25811 25815 28
20653 25816 25817 28
20654 25816 25818 28
20655 25816 25819 28
20656 25816 25820 28
20657 25821 25822 28
20658 25821 25823 28
20659 25821 25824 28
20660 25821 25825 28
20661 25826 25827 28
20662 25826 25828 28
20663 25826 25829 28
20664 25826 25830 28
20665 25831 25832 28
20666 25831 25833 28
20667 25831 25834 28
20668 25831 25835 28
20669 25836 25837 28
20670 25836 25838 28
20671 25836 25839 28
20672 25836 25840 28
20673 25841 25842 28
20674 25841 25843 28
20675 25841 25844 28
20676 25841 25845 28
20677 25846 25847 28
20678 25846 25848 28
20679 25846 25849 28
20680 25846 25850 28
20681 25851 25852 28
20682 25851 25853 28
20683 25851 25854 28
20684 25851 25855 28
20685 25856 25857 28
20686 25856 25858 28
20687 25856 25859 28
20688 25856 25860 28
20689 25861 25862 28
20690 25861 25863 28
20691 25861 25864 28
20692 25861 25865 28
20693 25866 25867 28
20694 25866 25868 28
20695 25866 25869 28
20696 25866 25870 28
20697 25871 25872 28
20698 25871 25873 28
20699 25871 25874 28
20700 25871 25875 28
20701 25876 25877 28
20702 25876 25878 28
20703 25876 25879 28
20704 25876 25880 28
20705 25881 25882 28
20706 25881 25883 28
20707 25881 25884 28
20708 25881 25885 28
20709 25886 25887 28
20710 25886 25888 28
20711 25886 25889 28
20712 25886 25890 28
20713 25891 25892 28
20714 25891 25893 28
20715 25891 25894 28
20716 25891 25895 28
20717 25896 25897 28
20718 25896 25898 28
20719 25896 25899 28
20720 25896 25900 28
20721 25901 25902 28
20722 25901 25903 28
20723 25901 25904 28
20724 25901 25905 28
20725 25906 25907 28
20726 25906 25908 28
20727 25906 25909 28
20728 25906 25910 28
20729 25911 25912 28
20730 25911 25913 28
20731 25911 25914 28
20732 25911 25915 28
20733 25916 25917 28
20734 25916 25918 28
20735 25916 25919 28
20736 25916 25920 28
20737 25921 25922 28
20738 25921 25923 28
20739 25921 25924 28
20740 25921 25925 28
20741 25926 25927 28
20742 25926 25928 28
20743 25926 25929 28
20744 25926 25930 28
20745 25931 25932 28
20746 25931 25933 28
20747 25931 25934 28
20748 25931 25935 28
20749 25936 25937 28
20750 25936 25938 28
20751 25936 25939 28
20752 25936 25940 28
20753 25941 25942 28
20754 25941 25943 28
20755 25941 25944 28
20756 25941 25945 28
20757 25946 25947 28
20758 25946 25948 28
20759 25946 25949 28
20760 25946 25950 28
20761 25951 25952 28
20762 25951 25953 28
20763 25951 25954 28
20764 25951 25955 28
20765 25956 25957 28
20766 25956 25958 28
20767 25956 25959 28
20768 25956 25960 28
20769 25961 25962 28
20770 25961 25963 28
20771 25961 25964 28
20772 25961 25965 28
20773 25966 25967 28
20774 25966 25968 28
20775 25966 25969 28
20776 25966 25970 28
20777 25971 25972 28
20778 25971 25973 28
20779 25971 25974 28
20780 25971 25975 28
20781 25976 25977 28
20782 25976 25978 28
20783 25976 25979 28
20784 25976 25980 28
20785 25981 25982 28
20786 25981 25983 28
20787 25981 25984 28
20788 25981 25985 28
20789 25986 25987 28
20790 25986 25988 28
20791 25986 25989 28
20792 25986 25990 28
20793 25991 25992 28
20794 25991 25993 28
20795 25991 25994 28
20796 25991 25995 28
20797 25996 25997 28
20798 25996 25998 28
20799 25996 25999 28
20800 25996 26000 28
20801 26001 26002 28
20802 26001 26003 28
20803 26001 26004 28
20804 26001 26005 28
20805 26006 26007 28
20806 26006 26008 28
20807 26006 26009 28
20808 26006 26010 28
20809 26011 26012 28
20810 26011 26013 28
20811 26011 26014 28
20812 26011 26015 28
20813 26016 26017 28
20814 26016 26018 28
20815 26016 26019 28
20816 26016 26020 28
20817 26021 26022 28
20818 26021 26023 28
20819 26021 26024 28
20820 26021 26025 28
20821 26026 26027 28
20822 26026 26028 28
20823 26026 26029 28
20824 26026 26030 28
20825 26031 26032 28
20826 26031 26033 28
20827 26031 26034 28
20828 26031 26035 28
20829 26036 26037 28
20830 26036 26038 28
20831 26036 26039 28
20832 26036 26040 28
20833 26041 26042 28
20834 26041 26043 28
20835 26041 26044 28
20836 26041 26045 28
20837 26046 26047 28
20838 26046 26048 28
20839 26046 26049 28
20840 26046 26050 28
20841 26051 26052 28
20842 26051 26053 28
20843 26051 26054 28
20844 26051 26055 28
20845 26056 26057 28
20846 26056 26058 28
20847 26056 26059 28
20848 26056 26060 28
20849 26061 26062 28
20850 26061 26063 28
20851 26061 26064 28
20852 26061 26065 28
20853 26066 26067 28
20854 26066 26068 28
20855 26066 26069 28
20856 26066 26070 28
20857 26071 26072 28
20858 26071 26073 28
20859 26071 26074 28
20860 26071 26075 28
20861 26076 26077 28
20862 26076 26078 28
20863 26076 26079 28
20864 26076 26080 28
20865 26081 26082 28
20866 26081 26083 28
20867 26081 26084 28
20868 26081 26085 28
20869 26086 26087 28
20870 26086 26088 28
20871 26086 26089 28
20872 26086 26090 28
20873 26091 26092 28
20874 26091 26093 28
20875 26091 26094 28
20876 26091 26095 28
20877 26096 26097 28
20878 26096 26098 28
20879 26096 26099 28
20880 26096 26100 28
20881 26101 26102 28
20882 26101 26103 28
20883 26101 26104 28
20884 26101 26105 28
20885 26106 26107 28
20886 26106 26108 28
20887 26106 26109 28
20888 26106 26110 28
20889 26111 26112 28
20890 26111 26113 28
20891 26111 26114 28
20892 26111 26115 28
20893 26116 26117 28
20894 26116 26118 28
20895 26116 26119 28
20896 26116 26120 28
20897 26121 26122 28
20898 26121 26123 28
20899 26121 26124 28
20900 26121 26125 28
20901 26126 26127 28
20902 26126 26128 28
20903 26126 26129 28
20904 26126 26130 28
20905 26131 26132 28
20906 26131 26133 28
20907 26131 26134 28
20908 26131 26135 28
20909 26136 26137 28
20910 26136 26138 28
20911 26136 26139 28
20912 26136 26140 28
20913 26141 26142 28
20914 26141 26143 28
20915 26141 26144 28
20916 26141 26145 28
20917 26146 26147 28
20918 26146 26148 28
20919 26146 26149 28
20920 26146 26150 28
20921 26151 26152 28
20922 26151 26153 28
20923 26151 26154 28
20924 26151 26155 28
20925 26156 26157 28
20926 26156 26158 28
20927 26156 26159 28
20928 26156 26160 28
20929 26161 26162 28
20930 26161 26163 28
20931 26161 26164 28
20932 26161 26165 28
20933 26166 26167 28
20934 26166 26168 28
20935 26166 26169 28
20936 26166 26170 28
20937 26171 26172 28
20938 26171 26173 28
20939 26171 26174 28
20940 26171 26175 28
20941 26176 26177 28
20942 26176 26178 28
20943 26176 26179 28
20944 26176 26180 28
20945 26181 26182 28
20946 26181 26183 28
20947 26181 26184 28
20948 26181 26185 28
20949 26186 26187 28
20950 26186 26188 28
20951 26186 26189 28
20952 26186 26190 28
20953 26191 26192 28
20954 26191 26193 28
20955 26191 26194 28
20956 26191 26195 28
20957 26196 26197 28
20958 26196 26198 28
20959 26196 26199 28
20960 26196 26200 28
20961 26201 26202 28
20962 26201 26203 28
20963 26201 26204 28
20964 26201 26205 28
20965 26206 26207 28
20966 26206 26208 28
20967 26206 26209 28
20968 26206 26210 28
20969 26211 26212 28
20970 26211 26213 28
20971 26211 26214 28
20972 26211 26215 28
20973 26216 26217 28
20974 26216 26218 28
20975 26216 26219 28
20976 26216 26220 28
20977 26221 26222 28
20978 26221 26223 28
20979 26221 26224 28
20980 26221 26225 28
20981 26226 26227 28
20982 26226 26228 28
20983 26226 26229 28
20984 26226 26230 28
20985 26231 26232 28
20986 26231 26233 28
20987 26231 26234 28
20988 26231 26235 28
20989 26236 26237 28
20990 26236 26238 28
20991 26236 26239 28
20992 26236 26240 28
20993 26241 26242 28
20994 26241 26243 28
20995 26241 26244 28
20996 26241 26245 28
20997 26246 26247 28
20998 26246 26248 28
20999 26246 26249 28
21000 26246 26250 28
21001 26251 26252 28
21002 26251 26253 28
21003 26251 26254 28
21004 26251 26255 28
21005 26256 26257 28
21006 26256 26258 28
21007 26256 26259 28
21008 26256 26260 28
21009 26261 26262 28
21010 26261 26263 28
21011 26261 26264 28
21012 26261 26265 28
21013 26266 26267 28
21014 26266 26268 28
21015 26266 26269 28
21016 26266 26270 28
21017 26271 26272 28
21018 26271 26273 28
21019 26271 26274 28
21020 26271 26275 28
21021 26276 26277 28
21022 26276 26278 28
21023 26276 26279 28
21024 26276 26280 28
21025 26281 26282 28
21026 26281 26283 28
21027 26281 26284 28
21028 26281 26285 28
21029 26286 26287 28
21030 26286 26288 28
21031 26286 26289 28
21032 26286 26290 28
21033 26291 26292 28
21034 26291 26293 28
21035 26291 26294 28
21036 26291 26295 28
21037 26296 26297 28
21038 26296 26298 28
21039 26296 26299 28
21040 26296 26300 28
21041 26301 26302 28
21042 26301 26303 28
21043 26301 26304 28
21044 26301 26305 28
21045 26306 26307 28
21046 26306 26308 28
21047 26306 26309 28
21048 26306 26310 28
21049 26311 26312 28
21050 26311 26313 28
21051 26311 26314 28
21052 26311 26315 28
21053 26316 26317 28
21054 26316 26318 28
21055 26316 26319 28
21056 26316 26320 28
21057 26321 26322 28
21058 26321 26323 28
21059 26321 26324 28
21060 26321 26325 28
21061 26326 26327 28
21062 26326 26328 28
21063 26326 26329 28
21064 26326 26330 28
21065 26331 26332 28
21066 26331 26333 28
21067 26331 26334 28
21068 26331 26335 28
21069 26336 26337 28
21070 26336 26338 28
21071 26336 26339 28
21072 26336 26340 28
21073 26341 26342 28
21074 26341 26343 28
21075 26341 26344 28
21076 26341 26345 28
21077 26346 26347 28
21078 26346 26348 28
21079 26346 26349 28
21080 26346 26350 28
21081 26351 26352 28
21082 26351 26353 28
21083 26351 26354 28
21084 26351 26355 28
21085 26356 26357 28
21086 26356 26358 28
21087 26356 26359 28
21088 26356 26360 28
21089 26361 26362 28
21090 26361 26363 28
21091 26361 26364 28
21092 26361 26365 28
21093 26366 26367 28
21094 26366 26368 28
21095 26366 26369 28
21096 26366 26370 28
21097 26371 26372 28
21098 26371 26373 28
21099 26371 26374 28
21100 26371 26375 28
21101 26376 26377 28
21102 26376 26378 28
21103 26376 26379 28
21104 26376 26380 28
21105 26381 26382 28
21106 26381 26383 28
21107 26381 26384 28
21108 26381 26385 28
21109 26386 26387 28
21110 26386 26388 28
21111 26386 26389 28
21112 26386 26390 28
21113 26391 26392 28
21114 26391 26393 28
21115 26391 26394 28
21116 26391 26395 28
21117 26396 26397 28
21118 26396 26398 28
21119 26396 26399 28
21120 26396 26400 28
21121 26401 26402 28
21122 26401 26403 28
21123 26401 26404 28
21124 26401 26405 28
21125 26406 26407 28
21126 26406 26408 28
21127 26406 26409 28
21128 26406 26410 28
21129 26411 26412 28
21130 26411 26413 28
21131 26411 26414 28
21132 26411 26415 28
21133 26416 26417 28
21134 26416 26418 28
21135 26416 26419 28
21136 26416 26420 28
21137 26421 26422 28
21138 26421 26423 28
21139 26421 26424 28
21140 26421 26425 28
21141 26426 26427 28
21142 26426 26428 28
21143 26426 26429 28
21144 26426 26430 28
21145 26431 26432 28
21146 26431 26433 28
21147 26431 26434 28
21148 26431 26435 28
21149 26436 26437 28
21150 26436 26438 28
21151 26436 26439 28
21152 26436 26440 28
21153 26441 26442 28
21154 26441 26443 28
21155 26441 26444 28
21156 26441 26445 28
21157 26446 26447 28
21158 26446 26448 28
21159 26446 26449 28
21160 26446 26450 28
21161 26451 26452 28
21162 26451 26453 28
21163 26451 26454 28
21164 26451 26455 28
21165 26456 26457 28
21166 26456 26458 28
21167 26456 26459 28
21168 26456 26460 28
21169 26461 26462 28
21170 26461 26463 28
21171 26461 26464 28
21172 26461 26465 28
21173 26466 26467 28
21174 26466 26468 28
21175 26466 26469 28
21176 26466 26470 28
21177 26471 26472 28
21178 26471 26473 28
21179 26471 26474 28
21180 26471 26475 28
21181 26476 26477 28
21182 26476 26478 28
21183 26476 26479 28
21184 26476 26480 28
21185 26481 26482 28
21186 26481 26483 28
21187 26481 26484 28
21188 26481 26485 28
21189 26486 26487 28
21190 26486 26488 28
21191 26486 26489 28
21192 26486 26490 28
21193 26491 26492 28
21194 26491 26493 28
21195 26491 26494 28
21196 26491 26495 28
21197 26496 26497 28
21198 26496 26498 28
21199 26496 26499 28
21200 26496 26500 28
21201 26501 26502 28
21202 26501 26503 28
21203 26501 26504 28
21204 26501 26505 28
21205 26506 26507 28
21206 26506 26508 28
21207 26506 26509 28
21208 26506 26510 28
21209 26511 26512 28
21210 26511 26513 28
21211 26511 26514 28
21212 26511 26515 28
21213 26516 26517 28
21214 26516 26518 28
21215 26516 26519 28
21216 26516 26520 28
21217 26521 26522 28
21218 26521 26523 28
21219 26521 26524 28
21220 26521 26525 28
21221 26526 26527 28
21222 26526 26528 28
21223 26526 26529 28
21224 26526 26530 28
21225 26531 26532 28
21226 26531 26533 28
21227 26531 26534 28
21228 26531 26535 28
21229 26536 26537 28
21230 26536 26538 28
21231 26536 26539 28
21232 26536 26540 28
21233 26541 26542 28
21234 26541 26543 28
21235 26541 26544 28
21236 26541 26545 28
21237 26546 26547 28
21238 26546 26548 28
21239 26546 26549 28
21240 26546 26550 28
21241 26551 26552 28
21242 26551 26553 28
21243 26551 26554 28
21244 26551 26555 28
21245 26556 26557 28
21246 26556 26558 28
21247 26556 26559 28
21248 26556 26560 28
21249 26561 26562 28
21250 26561 26563 28
21251 26561 26564 28
21252 26561 26565 28
21253 26566 26567 28
21254 26566 26568 28
21255 26566 26569 28
21256 26566 26570 28
21257 26571 26572 28
21258 26571 26573 28
21259 26571 26574 28
21260 26571 26575 28
21261 26576 26577 28
21262 26576 26578 28
21263 26576 26579 28
21264 26576 26580 28
21265 26581 26582 28
21266 26581 26583 28
21267 26581 26584 28
21268 26581 26585 28
21269 26586 26587 28
21270 26586 26588 28
21271 26586 26589 28
21272 26586 26590 28
21273 26591 26592 28
21274 26591 26593 28
21275 26591 26594 28
21276 26591 26595 28
21277 26596 26597 28
21278 26596 26598 28
21279 26596 26599 28
21280 26596 26600 28
21281 26601 26602 28
21282 26601 26603 28
21283 26601 26604 28
21284 26601 26605 28
21285 26606 26607 28
21286 26606 26608 28
21287 26606 26609 28
21288 26606 26610 28
21289 26611 26612 28
21290 26611 26613 28
21291 26611 26614 28
21292 26611 26615 28
21293 26616 26617 28
21294 26616 26618 28
21295 26616 26619 28
21296 26616 26620 28
21297 26621 26622 28
21298 26621 26623 28
21299 26621 26624 28
21300 26621 26625 28
21301 26626 26627 28
21302 26626 26628 28
21303 26626 26629 28
21304 26626 26630 28
21305 26631 26632 28
21306 26631 26633 28
21307 26631 26634 28
21308 26631 26635 28
21309 26636 26637 28
21310 26636 26638 28
21311 26636 26639 28
21312 26636 26640 28
21313 26641 26642 28
21314 26641 26643 28
21315 26641 26644 28
21316 26641 26645 28
21317 26646 26647 28
21318 26646 26648 28
21319 26646 26649 28
21320 26646 26650 28
21321 26651 26652 28
21322 26651 26653 28
21323 26651 26654 28
21324 26651 26655 28
21325 26656 26657 28
21326 26656 26658 28
21327 26656 26659 28
21328 26656 26660 28
21329 26661 26662 28
21330 26661 26663 28
21331 26661 26664 28
21332 26661 26665 28
21333 26666 26667 28
21334 26666 26668 28
21335 26666 26669 28
21336 26666 26670 28
21337 26671 26672 28
21338 26671 26673 28
21339 26671 26674 28
21340 26671 26675 28
21341 26676 26677 28
21342 26676 26678 28
21343 26676 26679 28
21344 26676 26680 28
21345 26681 26682 28
21346 26681 26683 28
21347 26681 26684 28
21348 26681 26685 28
21349 26686 26687 28
21350 26686 26688 28
21351 26686 26689 28
21352 26686 26690 28
21353 26691 26692 28
21354 26691 26693 28
21355 26691 26694 28
21356 26691 26695 28
21357 26696 26697 28
21358 26696 26698 28
21359 26696 26699 28
21360 26696 26700 28
21361 26701 26702 28
21362 26701 26703 28
21363 26701 26704 28
21364 26701 26705 28
21365 26706 26707 28
21366 26706 26708 28
21367 26706 26709 28
21368 26706 26710 28
21369 26711 26712 28
21370 26711 26713 28
21371 26711 26714 28
21372 26711 26715 28
21373 26716 26717 28
21374 26716 26718 28
21375 26716 26719 28
21376 26716 26720 28
21377 26721 26722 28
21378 26721 26723 28
21379 26721 26724 28
21380 26721 26725 28
21381 26726 26727 28
21382 26726 26728 28
21383 26726 26729 28
21384 26726 26730 28
21385 26731 26732 28
21386 26731 26733 28
21387 26731 26734 28
21388 26731 26735 28
21389 26736 26737 28
21390 26736 26738 28
21391 26736 26739 28
21392 26736 26740 28
21393 26741 26742 28
21394 26741 26743 28
21395 26741 26744 28
21396 26741 26745 28
21397 26746 26747 28
21398 26746 26748 28
21399 26746 26749 28
21400 26746 26750 28
21401 26751 26752 28
21402 26751 26753 28
21403 26751 26754 28
21404 26751 26755 28
21405 26756 26757 28
21406 26756 26758 28
21407 26756 26759 28
21408 26756 26760 28
21409 26761 26762 28
21410 26761 26763 28
21411 26761 26764 28
21412 26761 26765 28
21413 26766 26767 28
21414 26766 26768 28
21415 26766 26769 28
21416 26766 26770 28
21417 26771 26772 28
21418 26771 26773 28
21419 26771 26774 28
21420 26771 26775 28
21421 26776 26777 28
21422 26776 26778 28
21423 26776 26779 28
21424 26776 26780 28
21425 26781 26782 28
21426 26781 26783 28
21427 26781 26784 28
21428 26781 26785 28
21429 26786 26787 28
21430 26786 26788 28
21431 26786 26789 28
21432 26786 26790 28
21433 26791 26792 28
21434 26791 26793 28
21435 26791 26794 28
21436 26791 26795 28
21437 26796 26797 28
21438 26796 26798 28
21439 26796 26799 28
21440 26796 26800 28
21441 26801 26802 28
21442 26801 26803 28
21443 26801 26804 28
21444 26801 26805 28
21445 26806 26807 28
21446 26806 26808 28
21447 26806 26809 28
21448 26806 26810 28
21449 26811 26812 28
21450 26811 26813 28
21451 26811 26814 28
21452 26811 26815 28
21453 26816 26817 28
21454 26816 26818 28
21455 26816 26819 28
21456 26816 26820 28
21457 26821 26822 28
21458 26821 26823 28
21459 26821 26824 28
21460 26821 26825 28
21461 26826 26827 28
21462 26826 26828 28
21463 26826 26829 28
21464 26826 26830 28
21465 26831 26832 28
21466 26831 26833 28
21467 26831 26834 28
21468 26831 26835 28
21469 26836 26837 28
21470 26836 26838 28
21471 26836 26839 28
21472 26836 26840 28
21473 26841 26842 28
21474 26841 26843 28
21475 26841 26844 28
21476 26841 26845 28
21477 26846 26847 28
21478 26846 26848 28
21479 26846 26849 28
21480 26846 26850 28
21481 26851 26852 28
21482 26851 26853 28
21483 26851 26854 28
21484 26851 26855 28
21485 26856 26857 28
21486 26856 26858 28
21487 26856 26859 28
21488 26856 26860 28
21489 26861 26862 28
21490 26861 26863 28
21491 26861 26864 28
21492 26861 26865 28
21493 26866 26867 28
21494 26866 26868 28
21495 26866 26869 28
21496 26866 26870 28
21497 26871 26872 28
21498 26871 26873 28
21499 26871 26874 28
21500 26871 26875 28
21501 26876 26877 28
21502 26876 26878 28
21503 26876 26879 28
21504 26876 26880 28
21505 26881 26882 28
21506 26881 26883 28
21507 26881 26884 28
21508 26881 26885 28
21509 26886 26887 28
21510 26886 26888 28
21511 26886 26889 28
21512 26886 26890 28
21513 26891 26892 28
21514 26891 26893 28
21515 26891 26894 28
21516 26891 26895 28
21517 26896 26897 28
21518 26896 26898 28
21519 26896 26899 28
21520 26896 26900 28
21521 26901 26902 28
21522 26901 26903 28
21523 26901 26904 28
21524 26901 26905 28
21525 26906 26907 28
21526 26906 26908 28
21527 26906 26909 28
21528 26906 26910 28
21529 26911 26912 28
21530 26911 26913 28
21531 26911 26914 28
21532 26911 26915 28
21533 26916 26917 28
21534 26916 26918 28
21535 26916 26919 28
21536 26916 26920 28
21537 26921 26922 28
21538 26921 26923 28
21539 26921 26924 28
21540 26921 26925 28
21541 26926 26927 28
21542 26926 26928 28
21543 26926 26929 28
21544 26926 26930 28
21545 26931 26932 28
21546 26931 26933 28
21547 26931 26934 28
21548 26931 26935 28
21549 26936 26937 28
21550 26936 26938 28
21551 26936 26939 28
21552 26936 26940 28
21553 26941 26942 28
21554 26941 26943 28
21555 26941 26944 28
21556 26941 26945 28
21557 26946 26947 28
21558 26946 26948 28
21559 26946 26949 28
21560 26946 26950 28
21561 26951 26952 28
21562 26951 26953 28
21563 26951 26954 28
21564 26951 26955 28
21565 26956 26957 28
21566 26956 26958 28
21567 26956 26959 28
21568 26956 26960 28
21569 26961 26962 28
21570 26961 26963 28
21571 26961 26964 28
21572 26961 26965 28
21573 26966 26967 28
21574 26966 26968 28
21575 26966 26969 28
21576 26966 26970 28
21577 26971 26972 28
21578 26971 26973 28
21579 26971 26974 28
21580 26971 26975 28
21581 26976 26977 28
21582 26976 26978 28
21583 26976 26979 28
21584 26976 26980 28
21585 26981 26982 28
21586 26981 26983 28
21587 26981 26984 28
21588 26981 26985 28
21589 26986 26987 28
21590 26986 26988 28
21591 26986 26989 28
21592 26986 26990 28
21593 26991 26992 28
21594 26991 26993 28
21595 26991 26994 28
21596 26991 26995 28
21597 26996 26997 28
21598 26996 26998 28
21599 26996 26999 28
21600 26996 27000 28
21601 27001 27002 28
21602 27001 27003 28
21603 27001 27004 28
21604 27001 27005 28
21605 27006 27007 28
21606 27006 27008 28
21607 27006 27009 28
21608 27006 27010 28
21609 27011 27012 28
21610 27011 27013 28
21611 27011 27014 28
21612 27011 27015 28
21613 27016 27017 28
21614 27016 27018 28
21615 27016 27019 28
21616 27016 27020 28
21617 27021 27022 28
21618 27021 27023 28
21619 27021 27024 28
21620 27021 27025 28
21621 27026 27027 28
21622 27026 27028 28
21623 27026 27029 28
21624 27026 27030 28
21625 27031 27032 28
21626 27031 27033 28
21627 27031 27034 28
21628 27031 27035 28
21629 27036 27037 28
21630 27036 27038 28
21631 27036 27039 28
21632 27036 27040 28
21633 27041 27042 28
21634 27041 27043 28
21635 27041 27044 28
21636 27041 27045 28
21637 27046 27047 28
21638 27046 27048 28
21639 27046 27049 28
21640 27046 27050 28
21641 27051 27052 28
21642 27051 27053 28
21643 27051 27054 28
21644 27051 27055 28
21645 27056 27057 28
21646 27056 27058 28
21647 27056 27059 28
21648 27056 27060 28
21649 27061 27062 28
21650 27061 27063 28
21651 27061 27064 28
21652 27061 27065 28
21653 27066 27067 28
21654 27066 27068 28
21655 27066 27069 28
21656 27066 27070 28
21657 27071 27072 28
21658 27071 27073 28
21659 27071 27074 28
21660 27071 27075 28
21661 27076 27077 28
21662 27076 27078 28
21663 27076 27079 28
21664 27076 27080 28
21665 27081 27082 28
21666 27081 27083 28
21667 27081 27084 28
21668 27081 27085 28
21669 27086 27087 28
21670 27086 27088 28
21671 27086 27089 28
21672 27086 27090 28
21673 27091 27092 28
21674 27091 27093 28
21675 27091 27094 28
21676 27091 27095 28
21677 27096 27097 28
21678 27096 27098 28
21679 27096 27099 28
21680 27096 27100 28
21681 27101 27102 28
21682 27101 27103 28
21683 27101 27104 28
21684 27101 27105 28
21685 27106 27107 28
21686 27106 27108 28
21687 27106 27109 28
21688 27106 27110 28
21689 27111 27112 28
21690 27111 27113 28
21691 27111 27114 28
21692 27111 27115 28
21693 27116 27117 28
21694 27116 27118 28
21695 27116 27119 28
21696 27116 27120 28
21697 27121 27122 28
21698 27121 27123 28
21699 27121 27124 28
21700 27121 27125 28
21701 27126 27127 28
21702 27126 27128 28
21703 27126 27129 28
21704 27126 27130 28
21705 27131 27132 28
21706 27131 27133 28
21707 27131 27134 28
21708 27131 27135 28
21709 27136 27137 28
21710 27136 27138 28
21711 27136 27139 28
21712 27136 27140 28
21713 27141 27142 28
21714 27141 27143 28
21715 27141 27144 28
21716 27141 27145 28
21717 27146 27147 28
21718 27146 27148 28
21719 27146 27149 28
21720 27146 27150 28
21721 27151 27152 28
21722 27151 27153 28
21723 27151 27154 28
21724 27151 27155 28
21725 27156 27157 28
21726 27156 27158 28
21727 27156 27159 28
21728 27156 27160 28
21729 27161 27162 28
21730 27161 27163 28
21731 27161 27164 28
21732 27161 27165 28
21733 27166 27167 28
21734 27166 27168 28
21735 27166 27169 28
21736 27166 27170 28
21737 27171 27172 28
21738 27171 27173 28
21739 27171 27174 28
21740 27171 27175 28
21741 27176 27177 28
21742 27176 27178 28
21743 27176 27179 28
21744 27176 27180 28
21745 27181 27182 28
21746 27181 27183 28
21747 27181 27184 28
21748 27181 27185 28
21749 27186 27187 28
21750 27186 27188 28
21751 27186 27189 28
21752 27186 27190 28
21753 27191 27192 28
21754 27191 27193 28
21755 27191 27194 28
21756 27191 27195 28
21757 27196 27197 28
21758 27196 27198 28
21759 27196 27199 28
21760 27196 27200 28
21761 27201 27202 28
21762 27201 27203 28
21763 27201 27204 28
21764 27201 27205 28
21765 27206 27207 28
21766 27206 27208 28
21767 27206 27209 28
21768 27206 27210 28
21769 27211 27212 28
21770 27211 27213 28
21771 27211 27214 28
21772 27211 27215 28
21773 27216 27217 28
21774 27216 27218 28
21775 27216 27219 28
21776 27216 27220 28
21777 27221 27222 28
21778 27221 27223 28
21779 27221 27224 28
21780 27221 27225 28
21781 27226 27227 28
21782 27226 27228 28
21783 27226 27229 28
21784 27226 27230 28
21785 27231 27232 28
21786 27231 27233 28
21787 27231 27234 28
21788 27231 27235 28
21789 27236 27237 28
21790 27236 27238 28
21791 27236 27239 28
21792 27236 27240 28
21793 27241 27242 28
21794 27241 27243 28
21795 27241 27244 28
21796 27241 27245 28
21797 27246 27247 28
21798 27246 27248 28
21799 27246 27249 28
21800 27246 27250 28
21801 27251 27252 28
21802 27251 27253 28
21803 27251 27254 28
21804 27251 27255 28
21805 27256 27257 28
21806 27256 27258 28
21807 27256 27259 28
21808 27256 27260 28
21809 27261 27262 28
21810 27261 27263 28
21811 27261 27264 28
21812 27261 27265 28
21813 27266 27267 28
21814 27266 27268 28
21815 27266 27269 28
21816 27266 27270 28
21817 27271 27272 28
21818 27271 27273 28
21819 27271 27274 28
21820 27271 27275 28
21821 27276 27277 28
21822 27276 27278 28
21823 27276 27279 28
21824 27276 27280 28
21825 27281 27282 28
21826 27281 27283 28
21827 27281 27284 28
21828 27281 27285 28
21829 27286 27287 28
21830 27286 27288 28
21831 27286 27289 28
21832 27286 27290 28
21833 27291 27292 28
21834 27291 27293 28
21835 27291 27294 28
21836 27291 27295 28
21837 27296 27297 28
21838 27296 27298 28
21839 27296 27299 28
21840 27296 27300 28
21841 27301 27302 28
21842 27301 27303 28
21843 27301 27304 28
21844 27301 27305 28
21845 27306 27307 28
21846 27306 27308 28
21847 27306 27309 28
21848 27306 27310 28
21849 27311 27312 28
21850 27311 27313 28
21851 27311 27314 28
21852 27311 27315 28
21853 27316 27317 28
21854 27316 27318 28
21855 27316 27319 28
21856 27316 27320 28
21857 27321 27322 28
21858 27321 27323 28
21859 27321 27324 28
21860 27321 27325 28
21861 27326 27327 28
21862 27326 27328 28
21863 27326 27329 28
21864 27326 27330 28
21865 27331 27332 28
21866 27331 27333 28
21867 27331 27334 28
21868 27331 27335 28
21869 27336 27337 28
21870 27336 27338 28
21871 27336 27339 28
21872 27336 27340 28
21873 27341 27342 28
21874 27341 27343 28
21875 27341 27344 28
21876 27341 27345 28
21877 27346 27347 28
21878 27346 27348 28
21879 27346 27349 28
21880 27346 27350 28
21881 27351 27352 28
21882 27351 27353 28
21883 27351 27354 28
21884 27351 27355 28
21885 27356 27357 28
21886 27356 27358 28
21887 27356 27359 28
21888 27356 27360 28
21889 27361 27362 28
21890 27361 27363 28
21891 27361 27364 28
21892 27361 27365 28
21893 27366 27367 28
21894 27366 27368 28
21895 27366 27369 28
21896 27366 27370 28
21897 27371 27372 28
21898 27371 27373 28
21899 27371 27374 28
21900 27371 27375 28
21901 27376 27377 28
21902 27376 27378 28
21903 27376 27379 28
21904 27376 27380 28
21905 27381 27382 28
21906 27381 27383 28
21907 27381 27384 28
21908 27381 27385 28
21909 27386 27387 28
21910 27386 27388 28
21911 27386 27389 28
21912 27386 27390 28
21913 27391 27392 28
21914 27391 27393 28
21915 27391 27394 28
21916 27391 27395 28
21917 27396 27397 28
21918 27396 27398 28
21919 27396 27399 28
21920 27396 27400 28
21921 27401 27402 28
21922 27401 27403 28
21923 27401 27404 28
21924 27401 27405 28
21925 27406 27407 28
21926 27406 27408 28
21927 27406 27409 28
21928 27406 27410 28
21929 27411 27412 28
21930 27411 27413 28
21931 27411 27414 28
21932 27411 27415 28
21933 27416 27417 28
21934 27416 27418 28
21935 27416 27419 28
21936 27416 27420 28
21937 27421 27422 28
21938 27421 27423 28
21939 27421 27424 28
21940 27421 27425 28
21941 27426 27427 28
21942 27426 27428 28
21943 27426 27429 28
21944 27426 27430 28
21945 27431 27432 28
21946 27431 27433 28
21947 27431 27434 28
21948 27431 27435 28
21949 27436 27437 28
21950 27436 27438 28
21951 27436 27439 28
21952 27436 27440 28
21953 27441 27442 28
21954 27441 27443 28
21955 27441 27444 28
21956 27441 27445 28
21957 27446 27447 28
21958 27446 27448 28
21959 27446 27449 28
21960 27446 27450 28
21961 27451 27452 28
21962 27451 27453 28
21963 27451 27454 28
21964 27451 27455 28
21965 27456 27457 28
21966 27456 27458 28
21967 27456 27459 28
21968 27456 27460 28
21969 27461 27462 28
21970 27461 27463 28
21971 27461 27464 28
21972 27461 27465 28
21973 27466 27467 28
21974 27466 27468 28
21975 27466 27469 28
21976 27466 27470 28
21977 27471 27472 28
21978 27471 27473 28
21979 27471 27474 28
21980 27471 27475 28
21981 27476 27477 28
21982 27476 27478 28
21983 27476 27479 28
21984 27476 27480 28
21985 27481 27482 28
21986 27481 27483 28
21987 27481 27484 28
21988 27481 27485 28
21989 27486 27487 28
21990 27486 27488 28
21991 27486 27489 28
21992 27486 27490 28
21993 27491 27492 28
21994 27491 27493 28
21995 27491 27494 28
21996 27491 27495 28
21997 27496 27497 28
21998 27496 27498 28
21999 27496 27499 28
22000 27496 27500 28
22001 27501 27502 28
22002 27501 27503 28
22003 27501 27504 28
22004 27501 27505 28
22005 27506 27507 28
22006 27506 27508 28
22007 27506 27509 28
22008 27506 27510 28
22009 27511 27512 28
22010 27511 27513 28
22011 27511 27514 28
22012 27511 27515 28
22013 27516 27517 28
22014 27516 27518 28
22015 27516 27519 28
22016 27516 27520 28
22017 27521 27522 28
22018 27521 27523 28
22019 27521 27524 28
22020 27521 27525 28
22021 27526 27527 28
22022 27526 27528 28
22023 27526 27529 28
22024 27526 27530 28
22025 27531 27532 28
22026 27531 27533 28
22027 27531 27534 28
22028 27531 27535 28
22029 27536 27537 28
22030 27536 27538 28
22031 27536 27539 28
22032 27536 27540 28
22033 27541 27542 28
22034 27541 27543 28
22035 27541 27544 28
22036 27541 27545 28
22037 27546 27547 28
22038 27546 27548 28
22039 27546 27549 28
22040 27546 27550 28
22041 27551 27552 28
22042 27551 27553 28
22043 27551 27554 28
22044 27551 27555 28
22045 27556 27557 28
22046 27556 27558 28
22047 27556 27559 28
22048 27556 27560 28
22049 27561 27562 28
22050 27561 27563 28
22051 27561 27564 28
22052 27561 27565 28
22053 27566 27567 28
22054 27566 27568 28
22055 27566 27569 28
22056 27566 27570 28
22057 27571 27572 28
22058 27571 27573 28
22059 27571 27574 28
22060 27571 27575 28
22061 27576 27577 28
22062 27576 27578 28
22063 27576 27579 28
22064 27576 27580 28
22065 27581 27582 28
22066 27581 27583 28
22067 27581 27584 28
22068 27581 27585 28
22069 27586 27587 28
22070 27586 27588 28
22071 27586 27589 28
22072 27586 27590 28
22073 27591 27592 28
22074 27591 27593 28
22075 27591 27594 28
22076 27591 27595 28
22077 27596 27597 28
22078 27596 27598 28
22079 27596 27599 28
22080 27596 27600 28
22081 27601 27602 28
22082 27601 27603 28
22083 27601 27604 28
22084 27601 27605 28
22085 27606 27607 28
22086 27606 27608 28
22087 27606 27609 28
22088 27606 27610 28
22089 27611 27612 28
22090 27611 27613 28
22091 27611 27614 28
22092 27611 27615 28
22093 27616 27617 28
22094 27616 27618 28
22095 27616 27619 28
22096 27616 27620 28
22097 27621 27622 28
22098 27621 27623 28
22099 27621 27624 28
22100 27621 27625 28
22101 27626 27627 28
22102 27626 27628 28
22103 27626 27629 28
22104 27626 27630 28
22105 27631 27632 28
22106 27631 27633 28
22107 27631 27634 28
22108 27631 27635 28
22109 27636 27637 28
22110 27636 27638 28
22111 27636 27639 28
22112 27636 27640 28
22113 27641 27642 28
22114 27641 27643 28
22115 27641 27644 28
22116 27641 27645 28
22117 27646 27647 28
22118 27646 27648 28
22119 27646 27649 28
22120 27646 27650 28
22121 27651 27652 28
22122 27651 27653 28
22123 27651 27654 28
22124 27651 27655 28
22125 27656 27657 28
22126 27656 27658 28
22127 27656 27659 28
22128 27656 27660 28
22129 27661 27662 28
22130 27661 27663 28
22131 27661 27664 28
22132 27661 27665 28
22133 27666 27667 28
22134 27666 27668 28
22135 27666 27669 28
22136 27666 27670 28
22137 27671 27672 28
22138 27671 27673 28
22139 27671 27674 28
22140 27671 27675 28
22141 27676 27677 28
22142 27676 27678 28
22143 27676 27679 28
22144 27676 27680 28
22145 27681 27682 28
22146 27681 27683 28
22147 27681 27684 28
22148 27681 27685 28
22149 27686 27687 28
22150 27686 27688 28
22151 27686 27689 28
22152 27686 27690 28
22153 27691 27692 28
22154 27691 27693 28
22155 27691 27694 28
22156 27691 27695 28
22157 27696 27697 28
22158 27696 27698 28
22159 27696 27699 28
22160 27696 27700 28
22161 27701 27702 28
22162 27701 27703 28
22163 27701 27704 28
22164 27701 27705 28
22165 27706 27707 28
22166 27706 27708 28
22167 27706 27709 28
22168 27706 27710 28
22169 27711 27712 28
22170 27711 27713 28
22171 27711 27714 28
22172 27711 27715 28
22173 27716 27717 28
22174 27716 27718 28
22175 27716 27719 28
22176 27716 27720 28
22177 27721 27722 28
22178 27721 27723 28
22179 27721 27724 28
22180 27721 27725 28
22181 27726 27727 28
22182 27726 27728 28
22183 27726 27729 28
22184 27726 27730 28
22185 27731 27732 28
22186 27731 27733 28
22187 27731 27734 28
22188 27731 27735 28
22189 27736 27737 28
22190 27736 27738 28
22191 27736 27739 28
22192 27736 27740 28
22193 27741 27742 28
22194 27741 27743 28
22195 27741 27744 28
22196 27741 27745 28
22197 27746 27747 28
22198 27746 27748 28
22199 27746 27749 28
22200 27746 27750 28
22201 27751 27752 28
22202 27751 27753 28
22203 27751 27754 28
22204 27751 27755 28
22205 27756 27757 28
22206 27756 27758 28
22207 27756 27759 28
22208 27756 27760 28
22209 27761 27762 28
22210 27761 27763 28
22211 27761 27764 28
22212 27761 27765 28
22213 27766 27767 28
22214 27766 27768 28
22215 27766 27769 28
22216 27766 27770 28
22217 27771 27772 28
22218 27771 27773 28
22219 27771 27774 28
22220 27771 27775 28
22221 27776 27777 28
22222 27776 27778 28
22223 27776 27779 28
22224 27776 27780 28
22225 27781 27782 28
22226 27781 27783 28
22227 27781 27784 28
22228 27781 27785 28
22229 27786 27787 28
22230 27786 27788 28
22231 27786 27789 28
22232 27786 27790 28
22233 27791 27792 28
22234 27791 27793 28
22235 27791 27794 28
22236 27791 27795 28
22237 27796 27797 28
22238 27796 27798 28
22239 27796 27799 28
22240 27796 27800 28
22241 27801 27802 28
22242 27801 27803 28
22243 27801 27804 28
22244 27801 27805 28
22245 27806 27807 28
22246 27806 27808 28
22247 27806 27809 28
22248 27806 27810 28
22249 27811 27812 28
22250 27811 27813 28
22251 27811 27814 28
22252 27811 27815 28
22253 27816 27817 28
22254 27816 27818 28
22255 27816 27819 28
22256 27816 27820 28
22257 27821 27822 28
22258 27821 27823 28
22259 27821 27824 28
22260 27821 27825 28
22261 27826 27827 28
22262 27826 27828 28
22263 27826 27829 28
22264 27826 27830 28
22265 27831 27832 28
22266 27831 27833 28
22267 27831 27834 28
22268 27831 27835 28
22269 27836 27837 28
22270 27836 27838 28
22271 27836 27839 28
22272 27836 27840 28
22273 27841 27842 28
22274 27841 27843 28
22275 27841 27844 28
22276 27841 27845 28
22277 27846 27847 28
22278 27846 27848 28
22279 27846 27849 28
22280 27846 27850 28
22281 27851 27852 28
22282 27851 27853 28
22283 27851 27854 28
22284 27851 27855 28
22285 27856 27857 28
22286 27856 27858 28
22287 27856 27859 28
22288 27856 27860 28
22289 27861 27862 28
22290 27861 27863 28
22291 27861 27864 28
22292 27861 27865 28
22293 27866 27867 28
22294 27866 27868 28
22295 27866 27869 28
22296 27866 27870 28
22297 27871 27872 28
22298 27871 27873 28
22299 27871 27874 28
22300 27871 27875 28
22301 27876 27877 28
22302 27876 27878 28
22303 27876 27879 28
22304 27876 27880 28
22305 27881 27882 28
22306 27881 27883 28
22307 27881 27884 28
22308 27881 27885 28
22309 27886 27887 28
22310 27886 27888 28
22311 27886 27889 28
22312 27886 27890 28
22313 27891 27892 28
22314 27891 27893 28
22315 27891 27894 28
22316 27891 27895 28
22317 27896 27897 28
22318 27896 27898 28
22319 27896 27899 28
22320 27896 27900 28
22321 27901 27902 28
22322 27901 27903 28
22323 27901 27904 28
22324 27901 27905 28
22325 27906 27907 28
22326 27906 27908 28
22327 27906 27909 28
22328 27906 27910 28
22329 27911 27912 28
22330 27911 27913 28
22331 27911 27914 28
22332 27911 27915 28
22333 27916 27917 28
22334 27916 27918 28
22335 27916 27919 28
22336 27916 27920 28
22337 27921 27922 28
22338 27921 27923 28
22339 27921 27924 28
22340 27921 27925 28
22341 27926 27927 28
22342 27926 27928 28
22343 27926 27929 28
22344 27926 27930 28
22345 27931 27932 28
22346 27931 27933 28
22347 27931 27934 28
22348 27931 27935 28
22349 27936 27937 28
22350 27936 27938 28
22351 27936 27939 28
22352 27936 27940 28
22353 27941 27942 28
22354 27941 27943 28
22355 27941 27944 28
22356 27941 27945 28
22357 27946 27947 28
22358 27946 27948 28
22359 27946 27949 28
22360 27946 27950 28
22361 27951 27952 28
22362 27951 27953 28
22363 27951 27954 28
22364 27951 27955 28
22365 27956 27957 28
22366 27956 27958 28
22367 27956 27959 28
22368 27956 27960 28
22369 27961 27962 28
22370 27961 27963 28
22371 27961 27964 28
22372 27961 27965 28
22373 27966 27967 28
22374 27966 27968 28
22375 27966 27969 28
22376 27966 27970 28
22377 27971 27972 28
22378 27971 27973 28
22379 27971 27974 28
22380 27971 27975 28
22381 27976 27977 28
22382 27976 27978 28
22383 27976 27979 28
22384 27976 27980 28
22385 27981 27982 28
22386 27981 27983 28
22387 27981 27984 28
22388 27981 27985 28
22389 27986 27987 28
22390 27986 27988 28
22391 27986 27989 28
22392 27986 27990 28
22393 27991 27992 28
22394 27991 27993 28
22395 27991 27994 28
22396 27991 27995 28
22397 27996 27997 28
22398 27996 27998 28
22399 27996 27999 28
22400 27996 28000 28
22401 28001 28002 28
22402 28001 28003 28
22403 28001 28004 28
22404 28001 28005 28
22405 28006 28007 28
22406 28006 28008 28
22407 28006 28009 28
22408 28006 28010 28
22409 28011 28012 28
22410 28011 28013 28
22411 28011 28014 28
22412 28011 28015 28
22413 28016 28017 28
22414 28016 28018 28
22415 28016 28019 28
22416 28016 28020 28
22417 28021 28022 28
22418 28021 28023 28
22419 28021 28024 28
22420 28021 28025 28
22421 28026 28027 28
22422 28026 28028 28
22423 28026 28029 28
22424 28026 28030 28
22425 28031 28032 28
22426 28031 28033 28
22427 28031 28034 28
22428 28031 28035 28
22429 28036 28037 28
22430 28036 28038 28
22431 28036 28039 28
22432 28036 28040 28
22433 28041 28042 28
22434 28041 28043 28
22435 28041 28044 28
22436 28041 28045 28
22437 28046 28047 28
22438 28046 28048 28
22439 28046 28049 28
22440 28046 28050 28
22441 28051 28052 28
22442 28051 28053 28
22443 28051 28054 28
22444 28051 28055 28
22445 28056 28057 28
22446 28056 28058 28
22447 28056 28059 28
22448 28056 28060 28
22449 28061 28062 28
22450 28061 28063 28
22451 28061 28064 28
22452 28061 28065 28
22453 28066 28067 28
22454 28066 28068 28
22455 28066 28069 28
22456 28066 28070 28
22457 28071 28072 28
22458 28071 28073 28
22459 28071 28074 28
22460 28071 28075 28
22461 28076 28077 28
22462 28076 28078 28
22463 28076 28079 28
22464 28076 28080 28
22465 28081 28082 28
22466 28081 28083 28
22467 28081 28084 28
22468 28081 28085 28
22469 28086 28087 28
22470 28086 28088 28
22471 28086 28089 28
22472 28086 28090 28
22473 28091 28092 28
22474 28091 28093 28
22475 28091 28094 28
22476 28091 28095 28
22477 28096 28097 28
22478 28096 28098 28
22479 28096 28099 28
22480 28096 28100 28
22481 28101 28102 28
22482 28101 28103 28
22483 28101 28104 28
22484 28101 28105 28
22485 28106 28107 28
22486 28106 28108 28
22487 28106 28109 28
22488 28106 28110 28
22489 28111 28112 28
22490 28111 28113 28
22491 28111 28114 28
22492 28111 28115 28
22493 28116 28117 28
22494 28116 28118 28
22495 28116 28119 28
22496 28116 28120 28
22497 28121 28122 28
22498 28121 28123 28
22499 28121 28124 28
22500 28121 28125 28
22501 28126 28127 28
22502 28126 28128 28
22503 28126 28129 28
22504 28126 28130 28
22505 28131 28132 28
22506 28131 28133 28
22507 28131 28134 28
22508 28131 28135 28
22509 28136 28137 28
22510 28136 28138 28
22511 28136 28139 28
22512 28136 28140 28
22513 28141 28142 28
22514 28141 28143 28
22515 28141 28144 28
22516 28141 28145 28
22517 28146 28147 28
22518 28146 28148 28
22519 28146 28149 28
22520 28146 28150 28
22521 28151 28152 28
22522 28151 28153 28
22523 28151 28154 28
22524 28151 28155 28
22525 28156 28157 28
22526 28156 28158 28
22527 28156 28159 28
22528 28156 28160 28
22529 28161 28162 28
22530 28161 28163 28
22531 28161 28164 28
22532 28161 28165 28
22533 28166 28167 28
22534 28166 28168 28
22535 28166 28169 28
22536 28166 28170 28
22537 28171 28172 28
22538 28171 28173 28
22539 28171 28174 28
22540 28171 28175 28
22541 28176 28177 28
22542 28176 28178 28
22543 28176 28179 28
22544 28176 28180 28
22545 28181 28182 28
22546 28181 28183 28
22547 28181 28184 28
22548 28181 28185 28
22549 28186 28187 28
22550 28186 28188 28
22551 28186 28189 28
22552 28186 28190 28
22553 28191 28192 28
22554 28191 28193 28
22555 28191 28194 28
22556 28191 28195 28
22557 28196 28197 28
22558 28196 28198 28
22559 28196 28199 28
22560 28196 28200 28
22561 28201 28202 28
22562 28201 28203 28
22563 28201 28204 28
22564 28201 28205 28
22565 28206 28207 28
22566 28206 28208 28
22567 28206 28209 28
22568 28206 28210 28
22569 28211 28212 28
22570 28211 28213 28
22571 28211 28214 28
22572 28211 28215 28
22573 28216 28217 28
22574 28216 28218 28
22575 28216 28219 28
22576 28216 28220 28
22577 28221 28222 28
22578 28221 28223 28
22579 28221 28224 28
22580 28221 28225 28
22581 28226 28227 28
22582 28226 28228 28
22583 28226 28229 28
22584 28226 28230 28
22585 28231 28232 28
22586 28231 28233 28
22587 28231 28234 28
22588 28231 28235 28
22589 28236 28237 28
22590 28236 28238 28
22591 28236 28239 28
22592 28236 28240 28
22593 28241 28242 28
22594 28241 28243 28
22595 28241 28244 28
22596 28241 28245 28
22597 28246 28247 28
22598 28246 28248 28
22599 28246 28249 28
22600 28246 28250 28
22601 28251 28252 28
22602 28251 28253 28
22603 28251 28254 28
22604 28251 28255 28
22605 28256 28257 28
22606 28256 28258 28
22607 28256 28259 28
22608 28256 28260 28
22609 28261 28262 28
22610 28261 28263 28
22611 28261 28264 28
22612 28261 28265 28
22613 28266 28267 28
22614 28266 28268 28
22615 28266 28269 28
22616 28266 28270 28
22617 28271 28272 28
22618 28271 28273 28
22619 28271 28274 28
22620 28271 28275 28
22621 28276 28277 28
22622 28276 28278 28
22623 28276 28279 28
22624 28276 28280 28
22625 28281 28282 28
22626 28281 28283 28
22627 28281 28284 28
22628 28281 28285 28
22629 28286 28287 28
22630 28286 28288 28
22631 28286 28289 28
22632 28286 28290 28
22633 28291 28292 28
22634 28291 28293 28
22635 28291 28294 28
22636 28291 28295 28
22637 28296 28297 28
22638 28296 28298 28
22639 28296 28299 28
22640 28296 28300 28
22641 28301 28302 28
22642 28301 28303 28
22643 28301 28304 28
22644 28301 28305 28
22645 28306 28307 28
22646 28306 28308 28
22647 28306 28309 28
22648 28306 28310 28
22649 28311 28312 28
22650 28311 28313 28
22651 28311 28314 28
22652 28311 28315 28
22653 28316 28317 28
22654 28316 28318 28
22655 28316 28319 28
22656 28316 28320 28
22657 28321 28322 28
22658 28321 28323 28
22659 28321 28324 28
22660 28321 28325 28
22661 28326 28327 28
22662 28326 28328 28
22663 28326 28329 28
22664 28326 28330 28
22665 28331 28332 28
22666 28331 28333 28
22667 28331 28334 28
22668 28331 28335 28
22669 28336 28337 28
22670 28336 28338 28
22671 28336 28339 28
22672 28336 28340 28
22673 28341 28342 28
22674 28341 28343 28
22675 28341 28344 28
22676 28341 28345 28
22677 28346 28347 28
22678 28346 28348 28
22679 28346 28349 28
22680 28346 28350 28
22681 28351 28352 28
22682 28351 28353 28
22683 28351 28354 28
22684 28351 28355 28
22685 28356 28357 28
22686 28356 28358 28
22687 28356 28359 28
22688 28356 28360 28
22689 28361 28362 28
22690 28361 28363 28
22691 28361 28364 28
22692 28361 28365 28
22693 28366 28367 28
22694 28366 28368 28
22695 28366 28369 28
22696 28366 28370 28
22697 28371 28372 28
22698 28371 28373 28
22699 28371 28374 28
22700 28371 28375 28
22701 28376 28377 28
22702 28376 28378 28
22703 28376 28379 28
22704 28376 28380 28
22705 28381 28382 28
22706 28381 28383 28
22707 28381 28384 28
22708 28381 28385 28
22709 28386 28387 28
22710 28386 28388 28
22711 28386 28389 28
22712 28386 28390 28
22713 28391 28392 28
22714 28391 28393 28
22715 28391 28394 28
22716 28391 28395 28
22717 28396 28397 28
22718 28396 28398 28
22719 28396 28399 28
22720 28396 28400 28
22721 28401 28402 28
22722 28401 28403 28
22723 28401 28404 28
22724 28401 28405 28
22725 28406 28407 28
22726 28406 28408 28
22727 28406 28409 28
22728 28406 28410 28
22729 28411 28412 28
22730 28411 28413 28
22731 28411 28414 28
22732 28411 28415 28
22733 28416 28417 28
22734 28416 28418 28
22735 28416 28419 28
22736 28416 28420 28
22737 28421 28422 28
22738 28421 28423 28
22739 28421 28424 28
22740 28421 28425 28
22741 28426 28427 28
22742 28426 28428 28
22743 28426 28429 28
22744 28426 28430 28
22745 28431 28432 28
22746 28431 28433 28
22747 28431 28434 28
22748 28431 28435 28
22749 28436 28437 28
22750 28436 28438 28
22751 28436 28439 28
22752 28436 28440 28
22753 28441 28442 28
22754 28441 28443 28
22755 28441 28444 28
22756 28441 28445 28
22757 28446 28447 28
22758 28446 28448 28
22759 28446 28449 28
22760 28446 28450 28
22761 28451 28452 28
22762 28451 28453 28
22763 28451 28454 28
22764 28451 28455 28
22765 28456 28457 28
22766 28456 28458 28
22767 28456 28459 28
22768 28456 28460 28
22769 28461 28462 28
22770 28461 28463 28
22771 28461 28464 28
22772 28461 28465 28
22773 28466 28467 28
22774 28466 28468 28
22775 28466 28469 28
22776 28466 28470 28
22777 28471 28472 28
22778 28471 28473 28
22779 28471 28474 28
22780 28471 28475 28
22781 28476 28477 28
22782 28476 28478 28
22783 28476 28479 28
22784 28476 28480 28
22785 28481 28482 28
22786 28481 28483 28
22787 28481 28484 28
22788 28481 28485 28
22789 28486 28487 28
22790 28486 28488 28
22791 28486 28489 28
22792 28486 28490 28
22793 28491 28492 28
22794 28491 28493 28
22795 28491 28494 28
22796 28491 28495 28
22797 28496 28497 28
22798 28496 28498 28
22799 28496 28499 28
22800 28496 28500 28
22801 28501 28502 28
22802 28501 28503 28
22803 28501 28504 28
22804 28501 28505 28
22805 28506 28507 28
22806 28506 28508 28
22807 28506 28509 28
22808 28506 28510 28
22809 28511 28512 28
22810 28511 28513 28
22811 28511 28514 28
22812 28511 28515 28
22813 28516 28517 28
22814 28516 28518 28
22815 28516 28519 28
22816 28516 28520 28
22817 28521 28522 28
22818 28521 28523 28
22819 28521 28524 28
22820 28521 28525 28
22821 28526 28527 28
22822 28526 28528 28
22823 28526 28529 28
22824 28526 28530 28
22825 28531 28532 28
22826 28531 28533 28
22827 28531 28534 28
22828 28531 28535 28
22829 28536 28537 28
22830 28536 28538 28
22831 28536 28539 28
22832 28536 28540 28
22833 28541 28542 28
22834 28541 28543 28
22835 28541 28544 28
22836 28541 28545 28
22837 28546 28547 28
22838 28546 28548 28
22839 28546 28549 28
22840 28546 28550 28
22841 28551 28552 28
22842 28551 28553 28
22843 28551 28554 28
22844 28551 28555 28
22845 28556 28557 28
22846 28556 28558 28
22847 28556 28559 28
22848 28556 28560 28
22849 28561 28562 28
22850 28561 28563 28
22851 28561 28564 28
22852 28561 28565 28
22853 28566 28567 28
22854 28566 28568 28
22855 28566 28569 28
22856 28566 28570 28
22857 28571 28572 28
22858 28571 28573 28
22859 28571 28574 28
22860 28571 28575 28
22861 28576 28577 28
22862 28576 28578 28
22863 28576 28579 28
22864 28576 28580 28
22865 28581 28582 28
22866 28581 28583 28
22867 28581 28584 28
22868 28581 28585 28
22869 28586 28587 28
22870 28586 28588 28
22871 28586 28589 28
22872 28586 28590 28
22873 28591 28592 28
22874 28591 28593 28
22875 28591 28594 28
22876 28591 28595 28
22877 28596 28597 28
22878 28596 28598 28
22879 28596 28599 28
22880 28596 28600 28
22881 28601 28602 28
22882 28601 28603 28
22883 28601 28604 28
22884 28601 28605 28
22885 28606 28607 28
22886 28606 28608 28
22887 28606 28609 28
22888 28606 28610 28
22889 28611 28612 28
22890 28611 28613 28
22891 28611 28614 28
22892 28611 28615 28
22893 28616 28617 28
22894 28616 28618 28
22895 28616 28619 28
22896 28616 28620 28
22897 28621 28622 28
22898 28621 28623 28
22899 28621 28624 28
22900 28621 28625 28
22901 28626 28627 28
22902 28626 28628 28
22903 28626 28629 28
22904 28626 28630 28
22905 28631 28632 28
22906 28631 28633 28
22907 28631 28634 28
22908 28631 28635 28
22909 28636 28637 28
22910 28636 28638 28
22911 28636 28639 28
22912 28636 28640 28
22913 28641 28642 28
22914 28641 28643 28
22915 28641 28644 28
22916 28641 28645 28
22917 28646 28647 28
22918 28646 28648 28
22919 28646 28649 28
22920 28646 28650 28
22921 28651 28652 28
22922 28651 28653 28
22923 28651 28654 28
22924 28651 28655 28
22925 28656 28657 28
22926 28656 28658 28
22927 28656 28659 28
22928 28656 28660 28
22929 28661 28662 28
22930 28661 28663 28
22931 28661 28664 28
22932 28661 28665 28
22933 28666 28667 28
22934 28666 28668 28
22935 28666 28669 28
22936 28666 28670 28
22937 28671 28672 28
22938 28671 28673 28
22939 28671 28674 28
22940 28671 28675 28
22941 28676 28677 28
22942 28676 28678 28
22943 28676 28679 28
22944 28676 28680 28
22945 28681 28682 28
22946 28681 28683 28
22947 28681 28684 28
22948 28681 28685 28
22949 28686 28687 28
22950 28686 28688 28
22951 28686 28689 28
22952 28686 28690 28
22953 28691 28692 28
22954 28691 28693 28
22955 28691 28694 28
22956 28691 28695 28
22957 28696 28697 28
22958 28696 28698 28
22959 28696 28699 28
22960 28696 28700 28
22961 28701 28702 28
22962 28701 28703 28
22963 28701 28704 28
22964 28701 28705 28
22965 28706 28707 28
22966 28706 28708 28
22967 28706 28709 28
22968 28706 28710 28
22969 28711 28712 28
22970 28711 28713 28
22971 28711 28714 28
22972 28711 28715 28
22973 28716 28717 28
22974 28716 28718 28
22975 28716 28719 28
22976 28716 28720 28
22977 28721 28722 28
22978 28721 28723 28
22979 28721 28724 28
22980 28721 28725 28
22981 28726 28727 28
22982 28726 28728 28
22983 28726 28729 28
22984 28726 28730 28
22985 28731 28732 28
22986 28731 28733 28
22987 28731 28734 28
22988 28731 28735 28
22989 28736 28737 28
22990 28736 28738 28
22991 28736 28739 28
22992 28736 28740 28
22993 28741 28742 28
22994 28741 28743 28
22995 28741 28744 28
22996 28741 28745 28
22997 28746 28747 28
22998 28746 28748 28
22999 28746 28749 28
23000 28746 28750 28
23001 28751 28752 28
23002 28751 28753 28
23003 28751 28754 28
23004 28751 28755 28
23005 28756 28757 28
23006 28756 28758 28
23007 28756 28759 28
23008 28756 28760 28
23009 28761 28762 28
23010 28761 28763 28
23011 28761 28764 28
23012 28761 28765 28
23013 28766 28767 28
23014 28766 28768 28
23015 28766 28769 28
23016 28766 28770 28
23017 28771 28772 28
23018 28771 28773 28
23019 28771 28774 28
23020 28771 28775 28
23021 28776 28777 28
23022 28776 28778 28
23023 28776 28779 28
23024 28776 28780 28
23025 28781 28782 28
23026 28781 28783 28
23027 28781 28784 28
23028 28781 28785 28
23029 28786 28787 28
23030 28786 28788 28
23031 28786 28789 28
23032 28786 28790 28
23033 28791 28792 28
23034 28791 28793 28
23035 28791 28794 28
23036 28791 28795 28
23037 28796 28797 28
23038 28796 28798 28
23039 28796 28799 28
23040 28796 28800 28
23041 28801 28802 28
23042 28801 28803 28
23043 28801 28804 28
23044 28801 28805 28
23045 28806 28807 28
23046 28806 28808 28
23047 28806 28809 28
23048 28806 28810 28
23049 28811 28812 28
23050 28811 28813 28
23051 28811 28814 28
23052 28811 28815 28
23053 28816 28817 28
23054 28816 28818 28
23055 28816 28819 28
23056 28816 28820 28
23057 28821 28822 28
23058 28821 28823 28
23059 28821 28824 28
23060 28821 28825 28
23061 28826 28827 28
23062 28826 28828 28
23063 28826 28829 28
23064 28826 28830 28
23065 28831 28832 28
23066 28831 28833 28
23067 28831 28834 28
23068 28831 28835 28
23069 28836 28837 28
23070 28836 28838 28
23071 28836 28839 28
23072 28836 28840 28
23073 28841 28842 28
23074 28841 28843 28
23075 28841 28844 28
23076 28841 28845 28
23077 28846 28847 28
23078 28846 28848 28
23079 28846 28849 28
23080 28846 28850 28
23081 28851 28852 28
23082 28851 28853 28
23083 28851 28854 28
23084 28851 28855 28
23085 28856 28857 28
23086 28856 28858 28
23087 28856 28859 28
23088 28856 28860 28
23089 28861 28862 28
23090 28861 28863 28
23091 28861 28864 28
23092 28861 28865 28
23093 28866 28867 28
23094 28866 28868 28
23095 28866 28869 28
23096 28866 28870 28
23097 28871 28872 28
23098 28871 28873 28
23099 28871 28874 28
23100 28871 28875 28
23101 28876 28877 28
23102 28876 28878 28
23103 28876 28879 28
23104 28876 28880 28
23105 28881 28882 28
23106 28881 28883 28
23107 28881 28884 28
23108 28881 28885 28
23109 28886 28887 28
23110 28886 28888 28
23111 28886 28889 28
23112 28886 28890 28
23113 28891 28892 28
23114 28891 28893 28
23115 28891 28894 28
23116 28891 28895 28
23117 28896 28897 28
23118 28896 28898 28
23119 28896 28899 28
23120 28896 28900 28
23121 28901 28902 28
23122 28901 28903 28
23123 28901 28904 28
23124 28901 28905 28
23125 28906 28907 28
23126 28906 28908 28
23127 28906 28909 28
23128 28906 28910 28
23129 28911 28912 28
23130 28911 28913 28
23131 28911 28914 28
23132 28911 28915 28
23133 28916 28917 28
23134 28916 28918 28
23135 28916 28919 28
23136 28916 28920 28
23137 28921 28922 28
23138 28921 28923 28
23139 28921 28924 28
23140 28921 28925 28
23141 28926 28927 28
23142 28926 28928 28
23143 28926 28929 28
23144 28926 28930 28
23145 28931 28932 28
23146 28931 28933 28
23147 28931 28934 28
23148 28931 28935 28
23149 28936 28937 28
23150 28936 28938 28
23151 28936 28939 28
23152 28936 28940 28
23153 28941 28942 28
23154 28941 28943 28
23155 28941 28944 28
23156 28941 28945 28
23157 28946 28947 28
23158 28946 28948 28
23159 28946 28949 28
23160 28946 28950 28
23161 28951 28952 28
23162 28951 28953 28
23163 28951 28954 28
23164 28951 28955 28
23165 28956 28957 28
23166 28956 28958 28
23167 28956 28959 28
23168 28956 28960 28
23169 28961 28962 28
23170 28961 28963 28
23171 28961 28964 28
23172 28961 28965 28
23173 28966 28967 28
23174 28966 28968 28
23175 28966 28969 28
23176 28966 28970 28
23177 28971 28972 28
23178 28971 28973 28
23179 28971 28974 28
23180 28971 28975 28
23181 28976 28977 28
23182 28976 28978 28
23183 28976 28979 28
23184 28976 28980 28
23185 28981 28982 28
23186 28981 28983 28
23187 28981 28984 28
23188 28981 28985 28
23189 28986 28987 28
23190 28986 28988 28
23191 28986 28989 28
23192 28986 28990 28
23193 28991 28992 28
23194 28991 28993 28
23195 28991 28994 28
23196 28991 28995 28
23197 28996 28997 28
23198 28996 28998 28
23199 28996 28999 28
23200 28996 29000 28
23201 29001 29002 28
23202 29001 29003 28
23203 29001 29004 28
23204 29001 29005 28
23205 29006 29007 28
23206 29006 29008 28
23207 29006 29009 28
23208 29006 29010 28
23209 29011 29012 28
23210 29011 29013 28
23211 29011 29014 28
23212 29011 29015 28
23213 29016 29017 28
23214 29016 29018 28
23215 29016 29019 28
23216 29016 29020 28
23217 29021 29022 28
23218 29021 29023 28
23219 29021 29024 28
23220 29021 29025 28
23221 29026 29027 28
23222 29026 29028 28
23223 29026 29029 28
23224 29026 29030 28
23225 29031 29032 28
23226 29031 29033 28
23227 29031 29034 28
23228 29031 29035 28
23229 29036 29037 28
23230 29036 29038 28
23231 29036 29039 28
23232 29036 29040 28
23233 29041 29042 28
23234 29041 29043 28
23235 29041 29044 28
23236 29041 29045 28
23237 29046 29047 28
23238 29046 29048 28
23239 29046 29049 28
23240 29046 29050 28
23241 29051 29052 28
23242 29051 29053 28
23243 29051 29054 28
23244 29051 29055 28
23245 29056 29057 28
23246 29056 29058 28
23247 29056 29059 28
23248 29056 29060 28
23249 29061 29062 28
23250 29061 29063 28
23251 29061 29064 28
23252 29061 29065 28
23253 29066 29067 28
23254 29066 29068 28
23255 29066 29069 28
23256 29066 29070 28
23257 29071 29072 28
23258 29071 29073 28
23259 29071 29074 28
23260 29071 29075 28
23261 29076 29077 28
23262 29076 29078 28
23263 29076 29079 28
23264 29076 29080 28
23265 29081 29082 28
23266 29081 29083 28
23267 29081 29084 28
23268 29081 29085 28
23269 29086 29087 28
23270 29086 29088 28
23271 29086 29089 28
23272 29086 29090 28
23273 29091 29092 28
23274 29091 29093 28
23275 29091 29094 28
23276 29091 29095 28
23277 29096 29097 28
23278 29096 29098 28
23279 29096 29099 28
23280 29096 29100 28
23281 29101 29102 28
23282 29101 29103 28
23283 29101 29104 28
23284 29101 29105 28
23285 29106 29107 28
23286 29106 29108 28
23287 29106 29109 28
23288 29106 29110 28
23289 29111 29112 28
23290 29111 29113 28
23291 29111 29114 28
23292 29111 29115 28
23293 29116 29117 28
23294 29116 29118 28
23295 29116 29119 28
23296 29116 29120 28
23297 29121 29122 28
23298 29121 29123 28
23299 29121 29124 28
23300 29121 29125 28
23301 29126 29127 28
23302 29126 29128 28
23303 29126 29129 28
23304 29126 29130 28
23305 29131 29132 28
23306 29131 29133 28
23307 29131 29134 28
23308 29131 29135 28
23309 29136 29137 28
23310 29136 29138 28
23311 29136 29139 28
23312 29136 29140 28
23313 29141 29142 28
23314 29141 29143 28
23315 29141 29144 28
23316 29141 29145 28
23317 29146 29147 28
23318 29146 29148 28
23319 29146 29149 28
23320 29146 29150 28
23321 29151 29152 28
23322 29151 29153 28
23323 29151 29154 28
23324 29151 29155 28
23325 29156 29157 28
23326 29156 29158 28
23327 29156 29159 28
23328 29156 29160 28
23329 29161 29162 28
23330 29161 29163 28
23331 29161 29164 28
23332 29161 29165 28
23333 29166 29167 28
23334 29166 29168 28
23335 29166 29169 28
23336 29166 29170 28
23337 29171 29172 28
23338 29171 29173 28
23339 29171 29174 28
23340 29171 29175 28
23341 29176 29177 28
23342 29176 29178 28
23343 29176 29179 28
23344 29176 29180 28
23345 29181 29182 28
23346 29181 29183 28
23347 29181 29184 28
23348 29181 29185 28
23349 29186 29187 28
23350 29186 29188 28
23351 29186 29189 28
23352 29186 29190 28
23353 29191 29192 28
23354 29191 29193 28
23355 29191 29194 28
23356 29191 29195 28
23357 29196 29197 28
23358 29196 29198 28
23359 29196 29199 28
23360 29196 29200 28
23361 29201 29202 28
23362 29201 29203 28
23363 29201 29204 28
23364 29201 29205 28
23365 29206 29207 28
23366 29206 29208 28
23367 29206 29209 28
23368 29206 29210 28
23369 29211 29212 28
23370 29211 29213 28
23371 29211 29214 28
23372 29211 29215 28
23373 29216 29217 28
23374 29216 29218 28
23375 29216 29219 28
23376 29216 29220 28
23377 29221 29222 28
23378 29221 29223 28
23379 29221 29224 28
23380 29221 29225 28
23381 29226 29227 28
23382 29226 29228 28
23383 29226 29229 28
23384 29226 29230 28
23385 29231 29232 28
23386 29231 29233 28
23387 29231 29234 28
23388 29231 29235 28
23389 29236 29237 28
23390 29236 29238 28
23391 29236 29239 28
23392 29236 29240 28
23393 29241 29242 28
23394 29241 29243 28
23395 29241 29244 28
23396 29241 29245 28
23397 29246 29247 28
23398 29246 29248 28
23399 29246 29249 28
23400 29246 29250 28
23401 29251 29252 28
23402 29251 29253 28
23403 29251 29254 28
23404 29251 29255 28
23405 29256 29257 28
23406 29256 29258 28
23407 29256 29259 28
23408 29256 29260 28
23409 29261 29262 28
23410 29261 29263 28
23411 29261 29264 28
23412 29261 29265 28
23413 29266 29267 28
23414 29266 29268 28
23415 29266 29269 28
23416 29266 29270 28
23417 29271 29272 28
23418 29271 29273 28
23419 29271 29274 28
23420 29271 29275 28
23421 29276 29277 28
23422 29276 29278 28
23423 29276 29279 28
23424 29276 29280 28
23425 29281 29282 28
23426 29281 29283 28
23427 29281 29284 28
23428 29281 29285 28
23429 29286 29287 28
23430 29286 29288 28
23431 29286 29289 28
23432 29286 29290 28
23433 29291 29292 28
23434 29291 29293 28
23435 29291 29294 28
23436 29291 29295 28
23437 29296 29297 28
23438 29296 29298 28
23439 29296 29299 28
23440 29296 29300 28
23441 29301 29302 28
23442 29301 29303 28
23443 29301 29304 28
23444 29301 29305 28
23445 29306 29307 28
23446 29306 29308 28
23447 29306 29309 28
23448 29306 29310 28
23449 29311 29312 28
23450 29311 29313 28
23451 29311 29314 28
23452 29311 29315 28
23453 29316 29317 28
23454 29316 29318 28
23455 29316 29319 28
23456 29316 29320 28
23457 29321 29322 28
23458 29321 29323 28
23459 29321 29324 28
23460 29321 29325 28
23461 29326 29327 28
23462 29326 29328 28
23463 29326 29329 28
23464 29326 29330 28
23465 29331 29332 28
23466 29331 29333 28
23467 29331 29334 28
23468 29331 29335 28
23469 29336 29337 28
23470 29336 29338 28
23471 29336 29339 28
23472 29336 29340 28
23473 29341 29342 28
23474 29341 29343 28
23475 29341 29344 28
23476 29341 29345 28
23477 29346 29347 28
23478 29346 29348 28
23479 29346 29349 28
23480 29346 29350 28
23481 29351 29352 28
23482 29351 29353 28
23483 29351 29354 28
23484 29351 29355 28
23485 29356 29357 28
23486 29356 29358 28
23487 29356 29359 28
23488 29356 29360 28
23489 29361 29362 28
23490 29361 29363 28
23491 29361 29364 28
23492 29361 29365 28
23493 29366 29367 28
23494 29366 29368 28
23495 29366 29369 28
23496 29366 29370 28
23497 29371 29372 28
23498 29371 29373 28
23499 29371 29374 28
23500 29371 29375 28
23501 29376 29377 28
23502 29376 29378 28
23503 29376 29379 28
23504 29376 29380 28
23505 29381 29382 28
23506 29381 29383 28
23507 29381 29384 28
23508 29381 29385 28
23509 29386 29387 28
23510 29386 29388 28
23511 29386 29389 28
23512 29386 29390 28
23513 29391 29392 28
23514 29391 29393 28
23515 29391 29394 28
23516 29391 29395 28
23517 29396 29397 28
23518 29396 29398 28
23519 29396 29399 28
23520 29396 29400 28
23521 29401 29402 28
23522 29401 29403 28
23523 29401 29404 28
23524 29401 29405 28
23525 29406 29407 28
23526 29406 29408 28
23527 29406 29409 28
23528 29406 29410 28
23529 29411 29412 28
23530 29411 29413 28
23531 29411 29414 28
23532 29411 29415 28
23533 29416 29417 28
23534 29416 29418 28
23535 29416 29419 28
23536 29416 29420 28
23537 29421 29422 28
23538 29421 29423 28
23539 29421 29424 28
23540 29421 29425 28
23541 29426 29427 28
23542 29426 29428 28
23543 29426 29429 28
23544 29426 29430 28
23545 29431 29432 28
23546 29431 29433 28
23547 29431 29434 28
23548 29431 29435 28
23549 29436 29437 28
23550 29436 29438 28
23551 29436 29439 28
23552 29436 29440 28
23553 29441 29442 28
23554 29441 29443 28
23555 29441 29444 28
23556 29441 29445 28
23557 29446 29447 28
23558 29446 29448 28
23559 29446 29449 28
23560 29446 29450 28
23561 29451 29452 28
23562 29451 29453 28
23563 29451 29454 28
23564 29451 29455 28
23565 29456 29457 28
23566 29456 29458 28
23567 29456 29459 28
23568 29456 29460 28
23569 29461 29462 28
23570 29461 29463 28
23571 29461 29464 28
23572 29461 29465 28
23573 29466 29467 28
23574 29466 29468 28
23575 29466 29469 28
23576 29466 29470 28
23577 29471 29472 28
23578 29471 29473 28
23579 29471 29474 28
23580 29471 29475 28
23581 29476 29477 28
23582 29476 29478 28
23583 29476 29479 28
23584 29476 29480 28
23585 29481 29482 28
23586 29481 29483 28
23587 29481 29484 28
23588 29481 29485 28
23589 29486 29487 28
23590 29486 29488 28
23591 29486 29489 28
23592 29486 29490 28
23593 29491 29492 28
23594 29491 29493 28
23595 29491 29494 28
23596 29491 29495 28
23597 29496 29497 28
23598 29496 29498 28
23599 29496 29499 28
23600 29496 29500 28
23601 29501 29502 28
23602 29501 29503 28
23603 29501 29504 28
23604 29501 29505 28
23605 29506 29507 28
23606 29506 29508 28
23607 29506 29509 28
23608 29506 29510 28
23609 29511 29512 28
23610 29511 29513 28
23611 29511 29514 28
23612 29511 29515 28
23613 29516 29517 28
23614 29516 29518 28
23615 29516 29519 28
23616 29516 29520 28
23617 29521 29522 28
23618 29521 29523 28
23619 29521 29524 28
23620 29521 29525 28
23621 29526 29527 28
23622 29526 29528 28
23623 29526 29529 28
23624 29526 29530 28
23625 29531 29532 28
23626 29531 29533 28
23627 29531 29534 28
23628 29531 29535 28
23629 29536 29537 28
23630 29536 29538 28
23631 29536 29539 28
23632 29536 29540 28
23633 29541 29542 28
23634 29541 29543 28
23635 29541 29544 28
23636 29541 29545 28
23637 29546 29547 28
23638 29546 29548 28
23639 29546 29549 28
23640 29546 29550 28
23641 29551 29552 28
23642 29551 29553 28
23643 29551 29554 28
23644 29551 29555 28
23645 29556 29557 28
23646 29556 29558 28
23647 29556 29559 28
23648 29556 29560 28
23649 29561 29562 28
23650 29561 29563 28
23651 29561 29564 28
23652 29561 29565 28
23653 29566 29567 28
23654 29566 29568 28
23655 29566 29569 28
23656 29566 29570 28
23657 29571 29572 28
23658 29571 29573 28
23659 29571 29574 28
23660 29571 29575 28
23661 29576 29577 28
23662 29576 29578 28
23663 29576 29579 28
23664 29576 29580 28
23665 29581 29582 28
23666 29581 29583 28
23667 29581 29584 28
23668 29581 29585 28
23669 29586 29587 28
23670 29586 29588 28
23671 29586 29589 28
23672 29586 29590 28
23673 29591 29592 28
23674 29591 29593 28
23675 29591 29594 28
23676 29591 29595 28
23677 29596 29597 28
23678 29596 29598 28
23679 29596 29599 28
23680 29596 29600 28
23681 29601 29602 28
23682 29601 29603 28
23683 29601 29604 28
23684 29601 29605 28
23685 29606 29607 28
23686 29606 29608 28
23687 29606 29609 28
23688 29606 29610 28
23689 29611 29612 28
23690 29611 29613 28
23691 29611 29614 28
23692 29611 29615 28
23693 29616 29617 28
23694 29616 29618 28
23695 29616 29619 28
23696 29616 29620 28
23697 29621 29622 28
23698 29621 29623 28
23699 29621 29624 28
23700 29621 29625 28
23701 29626 29627 28
23702 29626 29628 28
23703 29626 29629 28
23704 29626 29630 28
23705 29631 29632 28
23706 29631 29633 28
23707 29631 29634 28
23708 29631 29635 28
23709 29636 29637 28
23710 29636 29638 28
23711 29636 29639 28
23712 29636 29640 28
23713 29641 29642 28
23714 29641 29643 28
23715 29641 29644 28
23716 29641 29645 28
23717 29646 29647 28
23718 29646 29648 28
23719 29646 29649 28
23720 29646 29650 28
23721 29651 29652 28
23722 29651 29653 28
23723 29651 29654 28
23724 29651 29655 28
23725 29656 29657 28
23726 29656 29658 28
23727 29656 29659 28
23728 29656 29660 28
23729 29661 29662 28
23730 29661 29663 28
23731 29661 29664 28
23732 29661 29665 28
23733 29666 29667 28
23734 29666 29668 28
23735 29666 29669 28
23736 29666 29670 28
23737 29671 29672 28
23738 29671 29673 28
23739 29671 29674 28
23740 29671 29675 28
23741 29676 29677 28
23742 29676 29678 28
23743 29676 29679 28
23744 29676 29680 28
23745 29681 29682 28
23746 29681 29683 28
23747 29681 29684 28
23748 29681 29685 28
23749 29686 29687 28
23750 29686 29688 28
23751 29686 29689 28
23752 29686 29690 28
23753 29691 29692 28
23754 29691 29693 28
23755 29691 29694 28
23756 29691 29695 28
23757 29696 29697 28
23758 29696 29698 28
23759 29696 29699 28
23760 29696 29700 28
23761 29701 29702 28
23762 29701 29703 28
23763 29701 29704 28
23764 29701 29705 28
23765 29706 29707 28
23766 29706 29708 28
23767 29706 29709 28
23768 29706 29710 28
23769 29711 29712 28
23770 29711 29713 28
23771 29711 29714 28
23772 29711 29715 28
23773 29716 29717 28
23774 29716 29718 28
23775 29716 29719 28
23776 29716 29720 28
23777 29721 29722 28
23778 29721 29723 28
23779 29721 29724 28
23780 29721 29725 28
23781 29726 29727 28
23782 29726 29728 28
23783 29726 29729 28
23784 29726 29730 28
23785 29731 29732 28
23786 29731 29733 28
23787 29731 29734 28
23788 29731 29735 28
23789 29736 29737 28
23790 29736 29738 28
23791 29736 29739 28
23792 29736 29740 28
23793 29741 29742 28
23794 29741 29743 28
23795 29741 29744 28
23796 29741 29745 28
23797 29746 29747 28
23798 29746 29748 28
23799 29746 29749 28
23800 29746 29750 28
23801 29751 29752 28
23802 29751 29753 28
23803 29751 29754 28
23804 29751 29755 28
23805 29756 29757 28
23806 29756 29758 28
23807 29756 29759 28
23808 29756 29760 28
23809 29761 29762 28
23810 29761 29763 28
23811 29761 29764 28
23812 29761 29765 28
23813 29766 29767 28
23814 29766 29768 28
23815 29766 29769 28
23816 29766 29770 28
23817 29771 29772 28
23818 29771 29773 28
23819 29771 29774 28
23820 29771 29775 28
23821 29776 29777 28
23822 29776 29778 28
23823 29776 29779 28
23824 29776 29780 28
23825 29781 29782 28
23826 29781 29783 28
23827 29781 29784 28
23828 29781 29785 28
23829 29786 29787 28
23830 29786 29788 28
23831 29786 29789 28
23832 29786 29790 28
23833 29791 29792 28
23834 29791 29793 28
23835 29791 29794 28
23836 29791 29795 28
23837 29796 29797 28
23838 29796 29798 28
23839 29796 29799 28
23840 29796 29800 28
23841 29801 29802 28
23842 29801 29803 28
23843 29801 29804 28
23844 29801 29805 28
23845 29806 29807 28
23846 29806 29808 28
23847 29806 29809 28
23848 29806 29810 28
23849 29811 29812 28
23850 29811 29813 28
23851 29811 29814 28
23852 29811 29815 28
23853 29816 29817 28
23854 29816 29818 28
23855 29816 29819 28
23856 29816 29820 28
23857 29821 29822 28
23858 29821 29823 28
23859 29821 29824 28
23860 29821 29825 28
23861 29826 29827 28
23862 29826 29828 28
23863 29826 29829 28
23864 29826 29830 28
23865 29831 29832 28
23866 29831 29833 28
23867 29831 29834 28
23868 29831 29835 28
23869 29836 29837 28
23870 29836 29838 28
23871 29836 29839 28
23872 29836 29840 28
23873 29841 29842 28
23874 29841 29843 28
23875 29841 29844 28
23876 29841 29845 28
23877 29846 29847 28
23878 29846 29848 28
23879 29846 29849 28
23880 29846 29850 28
23881 29851 29852 28
23882 29851 29853 28
23883 29851 29854 28
23884 29851 29855 28
23885 29856 29857 28
23886 29856 29858 28
23887 29856 29859 28
23888 29856 29860 28
23889 29861 29862 28
23890 29861 29863 28
23891 29861 29864 28
23892 29861 29865 28
23893 29866 29867 28
23894 29866 29868 28
23895 29866 29869 28
23896 29866 29870 28
23897 29871 29872 28
23898 29871 29873 28
23899 29871 29874 28
23900 29871 29875 28
23901 29876 29877 28
23902 29876 29878 28
23903 29876 29879 28
23904 29876 29880 28
23905 29881 29882 28
23906 29881 29883 28
23907 29881 29884 28
23908 29881 29885 28
23909 29886 29887 28
23910 29886 29888 28
23911 29886 29889 28
23912 29886 29890 28
23913 29891 29892 28
23914 29891 29893 28
23915 29891 29894 28
23916 29891 29895 28
23917 29896 29897 28
23918 29896 29898 28
23919 29896 29899 28
23920 29896 29900 28
23921 29901 29902 28
23922 29901 29903 28
23923 29901 29904 28
23924 29901 29905 28
23925 29906 29907 28
23926 29906 29908 28
23927 29906 29909 28
23928 29906 29910 28
23929 29911 29912 28
23930 29911 29913 28
23931 29911 29914 28
23932 29911 29915 28
23933 29916 29917 28
23934 29916 29918 28
23935 29916 29919 28
23936 29916 29920 28
23937 29921 29922 28
23938 29921 29923 28
23939 29921 29924 28
23940 29921 29925 28
23941 29926 29927 28
23942 29926 29928 28
23943 29926 29929 28
23944 29926 29930 28
23945 29931 29932 28
23946 29931 29933 28
23947 29931 29934 28
23948 29931 29935 28
23949 29936 29937 28
23950 29936 29938 28
23951 29936 29939 28
23952 29936 29940 28
23953 29941 29942 28
23954 29941 29943 28
23955 29941 29944 28
23956 29941 29945 28
23957 29946 29947 28
23958 29946 29948 28
23959 29946 29949 28
23960 29946 29950 28
23961 29951 29952 28
23962 29951 29953 28
23963 29951 29954 28
23964 29951 29955 28
23965 29956 29957 28
23966 29956 29958 28
23967 29956 29959 28
23968 29956 29960 28
23969 29961 29962 28
23970 29961 29963 28
23971 29961 29964 28
23972 29961 29965 28
23973 29966 29967 28
23974 29966 29968 28
23975 29966 29969 28
23976 29966 29970 28
23977 29971 29972 28
23978 29971 29973 28
23979 29971 29974 28
23980 29971 29975 28
23981 29976 29977 28
23982 29976 29978 28
23983 29976 29979 28
23984 29976 29980 28
23985 29981 29982 28
23986 29981 29983 28
23987 29981 29984 28
23988 29981 29985 28
23989 29986 29987 28
23990 29986 29988 28
23991 29986 29989 28
23992 29986 29990 28
23993 29991 29992 28
23994 29991 29993 28
23995 29991 29994 28
23996 29991 29995 28
23997 29996 29997 28
23998 29996 29998 28
23999 29996 29999 28
24000 29996 30000 28
24001 30001 30002 28
24002 30001 30003 28
24003 30001 30004 28
24004 30001 30005 28
24005 30006 30007 28
24006 30006 30008 28
24007 30006 30009 28
24008 30006 30010 28
24009 30011 30012 28
24010 30011 30013 28
24011 30011 30014 28
24012 30011 30015 28
24013 30016 30017 28
24014 30016 30018 28
24015 30016 30019 28
24016 30016 30020 28
24017 30021 30022 28
24018 30021 30023 28
24019 30021 30024 28
24020 30021 30025 28
24021 30026 30027 28
24022 30026 30028 28
24023 30026 30029 28
24024 30026 30030 28
24025 30031 30032 28
24026 30031 30033 28
24027 30031 30034 28
24028 30031 30035 28
24029 30036 30037 28
24030 30036 30038 28
24031 30036 30039 28
24032 30036 30040 28
24033 30041 30042 28
24034 30041 30043 28
24035 30041 30044 28
24036 30041 30045 28
24037 30046 30047 28
24038 30046 30048 28
24039 30046 30049 28
24040 30046 30050 28
24041 30051 30052 28
24042 30051 30053 28
24043 30051 30054 28
24044 30051 30055 28
24045 30056 30057 28
24046 30056 30058 28
24047 30056 30059 28
24048 30056 30060 28
24049 30061 30062 28
24050 30061 30063 28
24051 30061 30064 28
24052 30061 30065 28
24053 30066 30067 28
24054 30066 30068 28
24055 30066 30069 28
24056 30066 30070 28
24057 30071 30072 28
24058 30071 30073 28
24059 30071 30074 28
24060 30071 30075 28
24061 30076 30077 28
24062 30076 30078 28
24063 30076 30079 28
24064 30076 30080 28
24065 30081 30082 28
24066 30081 30083 28
24067 30081 30084 28
24068 30081 30085 28
24069 30086 30087 28
24070 30086 30088 28
24071 30086 30089 28
24072 30086 30090 28
24073 30091 30092 28
24074 30091 30093 28
24075 30091 30094 28
24076 30091 30095 28
24077 30096 30097 28
24078 30096 30098 28
24079 30096 30099 28
24080 30096 30100 28
24081 30101 30102 28
24082 30101 30103 28
24083 30101 30104 28
24084 30101 30105 28
24085 30106 30107 28
24086 30106 30108 28
24087 30106 30109 28
24088 30106 30110 28
24089 30111 30112 28
24090 30111 30113 28
24091 30111 30114 28
24092 30111 30115 28
24093 30116 30117 28
24094 30116 30118 28
24095 30116 30119 28
24096 30116 30120 28
24097 30121 30122 28
24098 30121 30123 28
24099 30121 30124 28
24100 30121 30125 28
24101 30126 30127 28
24102 30126 30128 28
24103 30126 30129 28
24104 30126 30130 28
24105 30131 30132 28
24106 30131 30133 28
24107 30131 30134 28
24108 30131 30135 28
24109 30136 30137 28
24110 30136 30138 28
24111 30136 30139 28
24112 30136 30140 28
24113 30141 30142 28
24114 30141 30143 28
24115 30141 30144 28
24116 30141 30145 28
24117 30146 30147 28
24118 30146 30148 28
24119 30146 30149 28
24120 30146 30150 28
24121 30151 30152 28
24122 30151 30153 28
24123 30151 30154 28
24124 30151 30155 28
24125 30156 30157 28
24126 30156 30158 28
24127 30156 30159 28
24128 30156 30160 28
24129 30161 30162 28
24130 30161 30163 28
24131 30161 30164 28
24132 30161 30165 28
24133 30166 30167 28
24134 30166 30168 28
24135 30166 30169 28
24136 30166 30170 28
24137 30171 30172 28
24138 30171 30173 28
24139 30171 30174 28
24140 30171 30175 28
24141 30176 30177 28
24142 30176 30178 28
24143 30176 30179 28
24144 30176 30180 28
24145 30181 30182 28
24146 30181 30183 28
24147 30181 30184 28
24148 30181 30185 28
24149 30186 30187 28
24150 30186 30188 28
24151 30186 30189 28
24152 30186 30190 28
24153 30191 30192 28
24154 30191 30193 28
24155 30191 30194 28
24156 30191 30195 28
24157 30196 30197 28
24158 30196 30198 28
24159 30196 30199 28
24160 30196 30200 28
24161 30201 30202 28
24162 30201 30203 28
24163 30201 30204 28
24164 30201 30205 28
24165 30206 30207 28
24166 30206 30208 28
24167 30206 30209 28
24168 30206 30210 28
24169 30211 30212 28
24170 30211 30213 28
24171 30211 30214 28
24172 30211 30215 28
24173 30216 30217 28
24174 30216 30218 28
24175 30216 30219 28
24176 30216 30220 28
24177 30221 30222 28
24178 30221 30223 28
24179 30221 30224 28
24180 30221 30225 28
24181 30226 30227 28
24182 30226 30228 28
24183 30226 30229 28
24184 30226 30230 28
24185 30231 30232 28
24186 30231 30233 28
24187 30231 30234 28
24188 30231 30235 28
24189 30236 30237 28
24190 30236 30238 28
24191 30236 30239 28
24192 30236 30240 28
24193 30241 30242 28
24194 30241 30243 28
24195 30241 30244 28
24196 30241 30245 28
24197 30246 30247 28
24198 30246 30248 28
24199 30246 30249 28
24200 30246 30250 28
24201 30251 30252 28
24202 30251 30253 28
24203 30251 30254 28
24204 30251 30255 28
24205 30256 30257 28
24206 30256 30258 28
24207 30256 30259 28
24208 30256 30260 28
24209 30261 30262 28
24210 30261 30263 28
24211 30261 30264 28
24212 30261 30265 28
24213 30266 30267 28
24214 30266 30268 28
24215 30266 30269 28
24216 30266 30270 28
24217 30271 30272 28
24218 30271 30273 28
24219 30271 30274 28
24220 30271 30275 28
24221 30276 30277 28
24222 30276 30278 28
24223 30276 30279 28
24224 30276 30280 28
24225 30281 30282 28
24226 30281 30283 28
24227 30281 30284 28
24228 30281 30285 28
24229 30286 30287 28
24230 30286 30288 28
24231 30286 30289 28
24232 30286 30290 28
24233 30291 30292 28
24234 30291 30293 28
24235 30291 30294 28
24236 30291 30295 28
24237 30296 30297 28
24238 30296 30298 28
24239 30296 30299 28
24240 30296 30300 28
24241 30301 30302 28
24242 30301 30303 28
24243 30301 30304 28
24244 30301 30305 28
24245 30306 30307 28
24246 30306 30308 28
24247 30306 30309 28
24248 30306 30310 28
24249 30311 30312 28
24250 30311 30313 28
24251 30311 30314 28
24252 30311 30315 28
24253 30316 30317 28
24254 30316 30318 28
24255 30316 30319 28
24256 30316 30320 28
24257 30321 30322 28
24258 30321 30323 28
24259 30321 30324 28
24260 30321 30325 28
24261 30326 30327 28
24262 30326 30328 28
24263 30326 30329 28
24264 30326 30330 28
24265 30331 30332 28
24266 30331 30333 28
24267 30331 30334 28
24268 30331 30335 28
24269 30336 30337 28
24270 30336 30338 28
24271 30336 30339 28
24272 30336 30340 28
24273 30341 30342 28
24274 30341 30343 28
24275 30341 30344 28
24276 30341 30345 28
24277 30346 30347 28
24278 30346 30348 28
24279 30346 30349 28
24280 30346 30350 28
24281 30351 30352 28
24282 30351 30353 28
24283 30351 30354 28
24284 30351 30355 28
24285 30356 30357 28
24286 30356 30358 28
24287 30356 30359 28
24288 30356 30360 28
24289 30361 30362 28
24290 30361 30363 28
24291 30361 30364 28
24292 30361 30365 28
24293 30366 30367 28
24294 30366 30368 28
24295 30366 30369 28
24296 30366 30370 28
24297 30371 30372 28
24298 30371 30373 28
24299 30371 30374 28
24300 30371 30375 28
24301 30376 30377 28
24302 30376 30378 28
24303 30376 30379 28
24304 30376 30380 28
24305 30381 30382 28
24306 30381 30383 28
24307 30381 30384 28
24308 30381 30385 28
24309 30386 30387 28
24310 30386 30388 28
24311 30386 30389 28
24312 30386 30390 28
24313 30391 30392 28
24314 30391 30393 28
24315 30391 30394 28
24316 30391 30395 28
24317 30396 30397 28
24318 30396 30398 28
24319 30396 30399 28
24320 30396 30400 28
24321 30401 30402 28
24322 30401 30403 28
24323 30401 30404 28
24324 30401 30405 28
24325 30406 30407 28
24326 30406 30408 28
24327 30406 30409 28
24328 30406 30410 28
24329 30411 30412 28
24330 30411 30413 28
24331 30411 30414 28
24332 30411 30415 28
24333 30416 30417 28
24334 30416 30418 28
24335 30416 30419 28
24336 30416 30420 28
24337 30421 30422 28
24338 30421 30423 28
24339 30421 30424 28
24340 30421 30425 28
24341 30426 30427 28
24342 30426 30428 28
24343 30426 30429 28
24344 30426 30430 28
24345 30431 30432 28
24346 30431 30433 28
24347 30431 30434 28
24348 30431 30435 28
24349 30436 30437 28
24350 30436 30438 28
24351 30436 30439 28
24352 30436 30440 28
24353 30441 30442 28
24354 30441 30443 28
24355 30441 30444 28
24356 30441 30445 28
24357 30446 30447 28
24358 30446 30448 28
24359 30446 30449 28
24360 30446 30450 28
24361 30451 30452 28
24362 30451 30453 28
24363 30451 30454 28
24364 30451 30455 28
24365 30456 30457 28
24366 30456 30458 28
24367 30456 30459 28
24368 30456 30460 28
24369 30461 30462 28
24370 30461 30463 28
24371 30461 30464 28
24372 30461 30465 28
24373 30466 30467 28
24374 30466 30468 28
24375 30466 30469 28
24376 30466 30470 28
24377 30471 30472 28
24378 30471 30473 28
24379 30471 30474 28
24380 30471 30475 28
24381 30476 30477 28
24382 30476 30478 28
24383 30476 30479 28
24384 30476 30480 28
24385 30481 30482 28
24386 30481 30483 28
24387 30481 30484 28
24388 30481 30485 28
24389 30486 30487 28
24390 30486 30488 28
24391 30486 30489 28
24392 30486 30490 28
24393 30491 30492 28
24394 30491 30493 28
24395 30491 30494 28
24396 30491 30495 28
24397 30496 30497 28
24398 30496 30498 28
24399 30496 30499 28
24400 30496 30500 28
24401 30501 30502 28
24402 30501 30503 28
24403 30501 30504 28
24404 30501 30505 28
24405 30506 30507 28
24406 30506 30508 28
24407 30506 30509 28
24408 30506 30510 28
24409 30511 30512 28
24410 30511 30513 28
24411 30511 30514 28
24412 30511 30515 28
24413 30516 30517 28
24414 30516 30518 28
24415 30516 30519 28
24416 30516 30520 28
24417 30521 30522 28
24418 30521 30523 28
24419 30521 30524 28
24420 30521 30525 28
24421 30526 30527 28
24422 30526 30528 28
24423 30526 30529 28
24424 30526 30530 28
24425 30531 30532 28
24426 30531 30533 28
24427 30531 30534 28
24428 30531 30535 28
24429 30536 30537 28
24430 30536 30538 28
24431 30536 30539 28
24432 30536 30540 28
24433 30541 30542 28
24434 30541 30543 28
24435 30541 30544 28
24436 30541 30545 28
24437 30546 30547 28
24438 30546 30548 28
24439 30546 30549 28
24440 30546 30550 28
24441 30551 30552 28
24442 30551 30553 28
24443 30551 30554 28
24444 30551 30555 28
24445 30556 30557 28
24446 30556 30558 28
24447 30556 30559 28
24448 30556 30560 28
24449 30561 30562 28
24450 30561 30563 28
24451 30561 30564 28
24452 30561 30565 28
24453 30566 30567 28
24454 30566 30568 28
24455 30566 30569 28
24456 30566 30570 28
24457 30571 30572 28
24458 30571 30573 28
24459 30571 30574 28
24460 30571 30575 28
24461 30576 30577 28
24462 30576 30578 28
24463 30576 30579 28
24464 30576 30580 28
24465 30581 30582 28
24466 30581 30583 28
24467 30581 30584 28
24468 30581 30585 28
24469 30586 30587 28
24470 30586 30588 28
24471 30586 30589 28
24472 30586 30590 28
24473 30591 30592 28
24474 30591 30593 28
24475 30591 30594 28
24476 30591 30595 28
24477 30596 30597 28
24478 30596 30598 28
24479 30596 30599 28
24480 30596 30600 28
24481 30601 30602 28
24482 30601 30603 28
24483 30601 30604 28
24484 30601 30605 28
24485 30606 30607 28
24486 30606 30608 28
24487 30606 30609 28
24488 30606 30610 28
24489 30611 30612 28
24490 30611 30613 28
24491 30611 30614 28
24492 30611 30615 28
24493 30616 30617 28
24494 30616 30618 28
24495 30616 30619 28
24496 30616 30620 28
24497 30621 30622 28
24498 30621 30623 28
24499 30621 30624 28
24500 30621 30625 28
24501 30626 30627 28
24502 30626 30628 28
24503 30626 30629 28
24504 30626 30630 28
24505 30631 30632 28
24506 30631 30633 28
24507 30631 30634 28
24508 30631 30635 28
24509 30636 30637 28
24510 30636 30638 28
24511 30636 30639 28
24512 30636 30640 28
24513 30641 30642 28
24514 30641 30643 28
24515 30641 30644 28
24516 30641 30645 28
24517 30646 30647 28
24518 30646 30648 28
24519 30646 30649 28
24520 30646 30650 28
24521 30651 30652 28
24522 30651 30653 28
24523 30651 30654 28
24524 30651 30655 28
24525 30656 30657 28
24526 30656 30658 28
24527 30656 30659 28
24528 30656 30660 28
24529 30661 30662 28
24530 30661 30663 28
24531 30661 30664 28
24532 30661 30665 28
24533 30666 30667 28
24534 30666 30668 28
24535 30666 30669 28
24536 30666 30670 28
24537 30671 30672 28
24538 30671 30673 28
24539 30671 30674 28
24540 30671 30675 28
24541 30676 30677 28
24542 30676 30678 28
24543 30676 30679 28
24544 30676 30680 28
24545 30681 30682 28
24546 30681 30683 28
24547 30681 30684 28
24548 30681 30685 28
24549 30686 30687 28
24550 30686 30688 28
24551 30686 30689 28
24552 30686 30690 28
24553 30691 30692 28
24554 30691 30693 28
24555 30691 30694 28
24556 30691 30695 28
24557 30696 30697 28
24558 30696 30698 28
24559 30696 30699 28
24560 30696 30700 28
24561 30701 30702 28
24562 30701 30703 28
24563 30701 30704 28
24564 30701 30705 28
24565 30706 30707 28
24566 30706 30708 28
24567 30706 30709 28
24568 30706 30710 28
24569 30711 30712 28
24570 30711 30713 28
24571 30711 30714 28
24572 30711 30715 28
24573 30716 30717 28
24574 30716 30718 28
24575 30716 30719 28
24576 30716 30720 28
24577 30721 30722 28
24578 30721 30723 28
24579 30721 30724 28
24580 30721 30725 28
24581 30726 30727 28
24582 30726 30728 28
24583 30726 30729 28
24584 30726 30730 28
24585 30731 30732 28
24586 30731 30733 28
24587 30731 30734 28
24588 30731 30735 28
24589 30736 30737 28
24590 30736 30738 28
24591 30736 30739 28
24592 30736 30740 28
24593 30741 30742 28
24594 30741 30743 28
24595 30741 30744 28
24596 30741 30745 28
24597 30746 30747 28
24598 30746 30748 28
24599 30746 30749 28
24600 30746 30750 28
24601 30751 30752 28
24602 30751 30753 28
24603 30751 30754 28
24604 30751 30755 28
24605 30756 30757 28
24606 30756 30758 28
24607 30756 30759 28
24608 30756 30760 28
24609 30761 30762 28
24610 30761 30763 28
24611 30761 30764 28
24612 30761 30765 28
24613 30766 30767 28
24614 30766 30768 28
24615 30766 30769 28
24616 30766 30770 28
24617 30771 30772 28
24618 30771 30773 28
24619 30771 30774 28
24620 30771 30775 28
24621 30776 30777 28
24622 30776 30778 28
24623 30776 30779 28
24624 30776 30780 28
24625 30781 30782 28
24626 30781 30783 28
24627 30781 30784 28
24628 30781 30785 28
24629 30786 30787 28
24630 30786 30788 28
24631 30786 30789 28
24632 30786 30790 28
24633 30791 30792 28
24634 30791 30793 28
24635 30791 30794 28
24636 30791 30795 28
24637 30796 30797 28
24638 30796 30798 28
24639 30796 30799 28
24640 30796 30800 28
24641 30801 30802 28
24642 30801 30803 28
24643 30801 30804 28
24644 30801 30805 28
24645 30806 30807 28
24646 30806 30808 28
24647 30806 30809 28
24648 30806 30810 28
24649 30811 30812 28
24650 30811 30813 28
24651 30811 30814 28
24652 30811 30815 28
24653 30816 30817 28
24654 30816 30818 28
24655 30816 30819 28
24656 30816 30820 28
24657 30821 30822 28
24658 30821 30823 28
24659 30821 30824 28
24660 30821 30825 28
24661 30826 30827 28
24662 30826 30828 28
24663 30826 30829 28
24664 30826 30830 28
24665 30831 30832 28
24666 30831 30833 28
24667 30831 30834 28
24668 30831 30835 28
24669 30836 30837 28
24670 30836 30838 28
24671 30836 30839 28
24672 30836 30840 28
24673 30841 30842 28
24674 30841 30843 28
24675 30841 30844 28
24676 30841 30845 28
24677 30846 30847 28
24678 30846 30848 28
24679 30846 30849 28
24680 30846 30850 28
24681 30851 30852 28
24682 30851 30853 28
24683 30851 30854 28
24684 30851 30855 28
24685 30856 30857 28
24686 30856 30858 28
24687 30856 30859 28
24688 30856 30860 28
24689 30861 30862 28
24690 30861 30863 28
24691 30861 30864 28
24692 30861 30865 28
24693 30866 30867 28
24694 30866 30868 28
24695 30866 30869 28
24696 30866 30870 28
24697 30871 30872 28
24698 30871 30873 28
24699 30871 30874 28
24700 30871 30875 28
24701 30876 30877 28
24702 30876 30878 28
24703 30876 30879 28
24704 30876 30880 28
24705 30881 30882 28
24706 30881 30883 28
24707 30881 30884 28
24708 30881 30885 28
24709 30886 30887 28
24710 30886 30888 28
24711 30886 30889 28
24712 30886 30890 28
24713 30891 30892 28
24714 30891 30893 28
24715 30891 30894 28
24716 30891 30895 28
24717 30896 30897 28
24718 30896 30898 28
24719 30896 30899 28
24720 30896 30900 28
24721 30901 30902 28
24722 30901 30903 28
24723 30901 30904 28
24724 30901 30905 28
24725 30906 30907 28
24726 30906 30908 28
24727 30906 30909 28
24728 30906 30910 28
24729 30911 30912 28
24730 30911 30913 28
24731 30911 30914 28
24732 30911 30915 28
24733 30916 30917 28
24734 30916 30918 28
24735 30916 30919 28
24736 30916 30920 28
24737 30921 30922 28
24738 30921 30923 28
24739 30921 30924 28
24740 30921 30925 28
24741 30926 30927 28
24742 30926 30928 28
24743 30926 30929 28
24744 30926 30930 28
24745 30931 30932 28
24746 30931 30933 28
24747 30931 30934 28
24748 30931 30935 28
24749 30936 30937 28
24750 30936 30938 28
24751 30936 30939 28
24752 30936 30940 28
24753 30941 30942 28
24754 30941 30943 28
24755 30941 30944 28
24756 30941 30945 28
24757 30946 30947 28
24758 30946 30948 28
24759 30946 30949 28
24760 30946 30950 28
24761 30951 30952 28
24762 30951 30953 28
24763 30951 30954 28
24764 30951 30955 28
24765 30956 30957 28
24766 30956 30958 28
24767 30956 30959 28
24768 30956 30960 28
24769 30961 30962 28
24770 30961 30963 28
24771 30961 30964 28
24772 30961 30965 28
24773 30966 30967 28
24774 30966 30968 28
24775 30966 30969 28
24776 30966 30970 28
24777 30971 30972 28
24778 30971 30973 28
24779 30971 30974 28
24780 30971 30975 28
24781 30976 30977 28
24782 30976 30978 28
24783 30976 30979 28
24784 30976 30980 28
24785 30981 30982 28
24786 30981 30983 28
24787 30981 30984 28
24788 30981 30985 28
24789 30986 30987 28
24790 30986 30988 28
24791 30986 30989 28
24792 30986 30990 28
24793 30991 30992 28
24794 30991 30993 28
24795 30991 30994 28
24796 30991 30995 28
24797 30996 30997 28
24798 30996 30998 28
24799 30996 30999 28
24800 30996 31000 28
24801 31001 31002 28
24802 31001 31003 28
24803 31001 31004 28
24804 31001 31005 28
24805 31006 31007 28
24806 31006 31008 28
24807 31006 31009 28
24808 31006 31010 28
24809 31011 31012 28
24810 31011 31013 28
24811 31011 31014 28
24812 31011 31015 28
24813 31016 31017 28
24814 31016 31018 28
24815 31016 31019 28
24816 31016 31020 28
24817 31021 31022 28
24818 31021 31023 28
24819 31021 31024 28
24820 31021 31025 28
24821 31026 31027 28
24822 31026 31028 28
24823 31026 31029 28
24824 31026 31030 28
24825 31031 31032 28
24826 31031 31033 28
24827 31031 31034 28
24828 31031 31035 28
24829 31036 31037 28
24830 31036 31038 28
24831 31036 31039 28
24832 31036 31040 28
24833 31041 31042 28
24834 31041 31043 28
24835 31041 31044 28
24836 31041 31045 28
24837 31046 31047 28
24838 31046 31048 28
24839 31046 31049 28
24840 31046 31050 28
24841 31051 31052 28
24842 31051 31053 28
24843 31051 31054 28
24844 31051 31055 28
24845 31056 31057 28
24846 31056 31058 28
24847 31056 31059 28
24848 31056 31060 28
24849 31061 31062 28
24850 31061 31063 28
24851 31061 31064 28
24852 31061 31065 28
24853 31066 31067 28
24854 31066 31068 28
24855 31066 31069 28
24856 31066 31070 28
24857 31071 31072 28
24858 31071 31073 28
24859 31071 31074 28
24860 31071 31075 28
24861 31076 31077 28
24862 31076 31078 28
24863 31076 31079 28
24864 31076 31080 28
24865 31081 31082 28
24866 31081 31083 28
24867 31081 31084 28
24868 31081 31085 28
24869 31086 31087 28
24870 31086 31088 28
24871 31086 31089 28
24872 31086 31090 28
24873 31091 31092 28
24874 31091 31093 28
24875 31091 31094 28
24876 31091 31095 28
24877 31096 31097 28
24878 31096 31098 28
24879 31096 31099 28
24880 31096 31100 28
24881 31101 31102 28
24882 31101 31103 28
24883 31101 31104 28
24884 31101 31105 28
24885 31106 31107 28
24886 31106 31108 28
24887 31106 31109 28
24888 31106 31110 28
24889 31111 31112 28
24890 31111 31113 28
24891 31111 31114 28
24892 31111 31115 28
24893 31116 31117 28
24894 31116 31118 28
24895 31116 31119 28
24896 31116 31120 28
24897 31121 31122 28
24898 31121 31123 28
24899 31121 31124 28
24900 31121 31125 28
24901 31126 31127 28
24902 31126 31128 28
24903 31126 31129 28
24904 31126 31130 28
24905 31131 31132 28
24906 31131 31133 28
24907 31131 31134 28
24908 31131 31135 28
24909 31136 31137 28
24910 31136 31138 28
24911 31136 31139 28
24912 31136 31140 28
24913 31141 31142 28
24914 31141 31143 28
24915 31141 31144 28
24916 31141 31145 28
24917 31146 31147 28
24918 31146 31148 28
24919 31146 31149 28
24920 31146 31150 28
24921 31151 31152 28
24922 31151 31153 28
24923 31151 31154 28
24924 31151 31155 28
24925 31156 31157 28
24926 31156 31158 28
24927 31156 31159 28
24928 31156 31160 28
24929 31161 31162 28
24930 31161 31163 28
24931 31161 31164 28
24932 31161 31165 28
24933 31166 31167 28
24934 31166 31168 28
24935 31166 31169 28
24936 31166 31170 28
24937 31171 31172 28
24938 31171 31173 28
24939 31171 31174 28
24940 31171 31175 28
24941 31176 31177 28
24942 31176 31178 28
24943 31176 31179 28
24944 31176 31180 28
24945 31181 31182 28
24946 31181 31183 28
24947 31181 31184 28
24948 31181 31185 28
24949 31186 31187 28
24950 31186 31188 28
24951 31186 31189 28
24952 31186 31190 28
24953 31191 31192 28
24954 31191 31193 28
24955 31191 31194 28
24956 31191 31195 28
24957 31196 31197 28
24958 31196 31198 28
24959 31196 31199 28
24960 31196 31200 28
24961 31201 31202 28
24962 31201 31203 28
24963 31201 31204 28
24964 31201 31205 28
24965 31206 31207 28
24966 31206 31208 28
24967 31206 31209 28
24968 31206 31210 28
24969 31211 31212 28
24970 31211 31213 28
24971 31211 31214 28
24972 31211 31215 28
24973 31216 31217 28
24974 31216 31218 28
24975 31216 31219 28
24976 31216 31220 28
24977 31221 31222 28
24978 31221 31223 28
24979 31221 31224 28
24980 31221 31225 28
24981 31226 31227 28
24982 31226 31228 28
24983 31226 31229 28
24984 31226 31230 28
24985 31231 31232 28
24986 31231 31233 28
24987 31231 31234 28
24988 31231 31235 28
24989 31236 31237 28
24990 31236 31238 28
24991 31236 31239 28
24992 31236 31240 28
24993 31241 31242 28
24994 31241 31243 28
24995 31241 31244 28
24996 31241 31245 28
24997 31246 31247 28
24998 31246 31248 28
24999 31246 31249 28
25000 31246 31250 28
25001 31251 31252 28
25002 31251 31253 28
25003 31251 31254 28
25004 31251 31255 28
25005 31256 31257 28
25006 31256 31258 28
25007 31256 31259 28
25008 31256 31260 28
25009 31261 31262 28
25010 31261 31263 28
25011 31261 31264 28
25012 31261 31265 28
25013 31266 31267 28
25014 31266 31268 28
25015 31266 31269 28
25016 31266 31270 28
25017 31271 31272 28
25018 31271 31273 28
25019 31271 31274 28
25020 31271 31275 28
25021 31276 31277 28
25022 31276 31278 28
25023 31276 31279 28
25024 31276 31280 28
25025 31281 31282 28
25026 31281 31283 28
25027 31281 31284 28
25028 31281 31285 28
25029 31286 31287 28
25030 31286 31288 28
25031 31286 31289 28
25032 31286 31290 28
25033 31291 31292 28
25034 31291 31293 28
25035 31291 31294 28
25036 31291 31295 28
25037 31296 31297 28
25038 31296 31298 28
25039 31296 31299 28
25040 31296 31300 28
25041 31301 31302 28
25042 31301 31303 28
25043 31301 31304 28
25044 31301 31305 28
25045 31306 31307 28
25046 31306 31308 28
25047 31306 31309 28
25048 31306 31310 28
25049 31311 31312 28
25050 31311 31313 28
25051 31311 31314 28
25052 31311 31315 28
25053 31316 31317 28
25054 31316 31318 28
25055 31316 31319 28
25056 31316 31320 28
25057 31321 31322 28
25058 31321 31323 28
25059 31321 31324 28
25060 31321 31325 28
25061 31326 31327 28
25062 31326 31328 28
25063 31326 31329 28
25064 31326 31330 28
25065 31331 31332 28
25066 31331 31333 28
25067 31331 31334 28
25068 31331 31335 28
25069 31336 31337 28
25070 31336 31338 28
25071 31336 31339 28
25072 31336 31340 28
25073 31341 31342 28
25074 31341 31343 28
25075 31341 31344 28
25076 31341 31345 28
25077 31346 31347 28
25078 31346 31348 28
25079 31346 31349 28
25080 31346 31350 28
25081 31351 31352 28
25082 31351 31353 28
25083 31351 31354 28
25084 31351 31355 28
25085 31356 31357 28
25086 31356 31358 28
25087 31356 31359 28
25088 31356 31360 28
25089 31361 31362 28
25090 31361 31363 28
25091 31361 31364 28
25092 31361 31365 28
25093 31366 31367 28
25094 31366 31368 28
25095 31366 31369 28
25096 31366 31370 28
25097 31371 31372 28
25098 31371 31373 28
25099 31371 31374 28
25100 31371 31375 28
25101 31376 31377 28
25102 31376 31378 28
25103 31376 31379 28
25104 31376 31380 28
25105 31381 31382 28
25106 31381 31383 28
25107 31381 31384 28
25108 31381 31385 28
25109 31386 31387 28
25110 31386 31388 28
25111 31386 31389 28
25112 31386 31390 28
25113 31391 31392 28
25114 31391 31393 28
25115 31391 31394 28
25116 31391 31395 28
25117 31396 31397 28
25118 31396 31398 28
25119 31396 31399 28
25120 31396 31400 28
25121 31401 31402 28
25122 31401 31403 28
25123 31401 31404 28
25124 31401 31405 28
25125 31406 31407 28
25126 31406 31408 28
25127 31406 31409 28
25128 31406 31410 28
25129 31411 31412 28
25130 31411 31413 28
25131 31411 31414 28
25132 31411 31415 28
25133 31416 31417 28
25134 31416 31418 28
25135 31416 31419 28
25136 31416 31420 28
25137 31421 31422 28
25138 31421 31423 28
25139 31421 31424 28
25140 31421 31425 28
25141 31426 31427 28
25142 31426 31428 28
25143 31426 31429 28
25144 31426 31430 28
25145 31431 31432 28
25146 31431 31433 28
25147 31431 31434 28
25148 31431 31435 28
25149 31436 31437 28
25150 31436 31438 28
25151 31436 31439 28
25152 31436 31440 28
25153 31441 31442 28
25154 31441 31443 28
25155 31441 31444 28
25156 31441 31445 28
25157 31446 31447 28
25158 31446 31448 28
25159 31446 31449 28
25160 31446 31450 28
25161 31451 31452 28
25162 31451 31453 28
25163 31451 31454 28
25164 31451 31455 28
25165 31456 31457 28
25166 31456 31458 28
25167 31456 31459 28
25168 31456 31460 28
25169 31461 31462 28
25170 31461 31463 28
25171 31461 31464 28
25172 31461 31465 28
25173 31466 31467 28
25174 31466 31468 28
25175 31466 31469 28
25176 31466 31470 28
25177 31471 31472 28
25178 31471 31473 28
25179 31471 31474 28
25180 31471 31475 28
25181 31476 31477 28
25182 31476 31478 28
25183 31476 31479 28
25184 31476 31480 28
25185 31481 31482 28
25186 31481 31483 28
25187 31481 31484 28
25188 31481 31485 28
25189 31486 31487 28
25190 31486 31488 28
25191 31486 31489 28
25192 31486 31490 28
25193 31491 31492 28
25194 31491 31493 28
25195 31491 31494 28
25196 31491 31495 28
25197 31496 31497 28
25198 31496 31498 28
25199 31496 31499 28
25200 31496 31500 28
25201 31501 31502 28
25202 31501 31503 28
25203 31501 31504 28
25204 31501 31505 28
25205 31506 31507 28
25206 31506 31508 28
25207 31506 31509 28
25208 31506 31510 28
25209 31511 31512 28
25210 31511 31513 28
25211 31511 31514 28
25212 31511 31515 28
25213 31516 31517 28
25214 31516 31518 28
25215 31516 31519 28
25216 31516 31520 28
25217 31521 31522 28
25218 31521 31523 28
25219 31521 31524 28
25220 31521 31525 28
25221 31526 31527 28
25222 31526 31528 28
25223 31526 31529 28
25224 31526 31530 28
25225 31531 31532 28
25226 31531 31533 28
25227 31531 31534 28
25228 31531 31535 28
25229 31536 31537 28
25230 31536 31538 28
25231 31536 31539 28
25232 31536 31540 28
25233 31541 31542 28
25234 31541 31543 28
25235 31541 31544 28
25236 31541 31545 28
25237 31546 31547 28
25238 31546 31548 28
25239 31546 31549 28
25240 31546 31550 28
25241 31551 31552 28
25242 31551 31553 28
25243 31551 31554 28
25244 31551 31555 28
25245 31556 31557 28
25246 31556 31558 28
25247 31556 31559 28
25248 31556 31560 28
25249 31561 31562 28
25250 31561 31563 28
25251 31561 31564 28
25252 31561 31565 28
25253 31566 31567 28
25254 31566 31568 28
25255 31566 31569 28
25256 31566 31570 28
25257 31571 31572 28
25258 31571 31573 28
25259 31571 31574 28
25260 31571 31575 28
25261 31576 31577 28
25262 31576 31578 28
25263 31576 31579 28
25264 31576 31580 28
25265 31581 31582 28
25266 31581 31583 28
25267 31581 31584 28
25268 31581 31585 28
25269 31586 31587 28
25270 31586 31588 28
25271 31586 31589 28
25272 31586 31590 28
25273 31591 31592 28
25274 31591 31593 28
25275 31591 31594 28
25276 31591 31595 28
25277 31596 31597 28
25278 31596 31598 28
25279 31596 31599 28
25280 31596 31600 28
25281 31601 31602 28
25282 31601 31603 28
25283 31601 31604 28
25284 31601 31605 28
25285 31606 31607 28
25286 31606 31608 28
25287 31606 31609 28
25288 31606 31610 28
25289 31611 31612 28
25290 31611 31613 28
25291 31611 31614 28
25292 31611 31615 28
25293 31616 31617 28
25294 31616 31618 28
25295 31616 31619 28
25296 31616 31620 28
25297 31621 31622 28
25298 31621 31623 28
25299 31621 31624 28
25300 31621 31625 28
25301 31626 31627 28
25302 31626 31628 28
25303 31626 31629 28
25304 31626 31630 28
25305 31631 31632 28
25306 31631 31633 28
25307 31631 31634 28
25308 31631 31635 28
25309 31636 31637 28
25310 31636 31638 28
25311 31636 31639 28
25312 31636 31640 28
25313 31641 31642 28
25314 31641 31643 28
25315 31641 31644 28
25316 31641 31645 28
25317 31646 31647 28
25318 31646 31648 28
25319 31646 31649 28
25320 31646 31650 28
25321 31651 31652 28
25322 31651 31653 28
25323 31651 31654 28
25324 31651 31655 28
25325 31656 31657 28
25326 31656 31658 28
25327 31656 31659 28
25328 31656 31660 28
25329 31661 31662 28
25330 31661 31663 28
25331 31661 31664 28
25332 31661 31665 28
25333 31666 31667 28
25334 31666 31668 28
25335 31666 31669 28
25336 31666 31670 28
25337 31671 31672 28
25338 31671 31673 28
25339 31671 31674 28
25340 31671 31675 28
25341 31676 31677 28
25342 31676 31678 28
25343 31676 31679 28
25344 31676 31680 28
25345 31681 31682 28
25346 31681 31683 28
25347 31681 31684 28
25348 31681 31685 28
25349 31686 31687 28
25350 31686 31688 28
25351 31686 31689 28
25352 31686 31690 28
25353 31691 31692 28
25354 31691 31693 28
25355 31691 31694 28
25356 31691 31695 28
25357 31696 31697 28
25358 31696 31698 28
25359 31696 31699 28
25360 31696 31700 28
25361 31701 31702 28
25362 31701 31703 28
25363 31701 31704 28
25364 31701 31705 28
25365 31706 31707 28
25366 31706 31708 28
25367 31706 31709 28
25368 31706 31710 28
25369 31711 31712 28
25370 31711 31713 28
25371 31711 31714 28
25372 31711 31715 28
25373 31716 31717 28
25374 31716 31718 28
25375 31716 31719 28
25376 31716 31720 28
25377 31721 31722 28
25378 31721 31723 28
25379 31721 31724 28
25380 31721 31725 28
25381 31726 31727 28
25382 31726 31728 28
25383 31726 31729 28
25384 31726 31730 28
25385 31731 31732 28
25386 31731 31733 28
25387 31731 31734 28
25388 31731 31735 28
25389 31736 31737 28
25390 31736 31738 28
25391 31736 31739 28
25392 31736 31740 28
25393 31741 31742 28
25394 31741 31743 28
25395 31741 31744 28
25396 31741 31745 28
25397 31746 31747 28
25398 31746 31748 28
25399 31746 31749 28
25400 31746 31750 28
25401 31751 31752 28
25402 31751 31753 28
25403 31751 31754 28
25404 31751 31755 28
25405 31756 31757 28
25406 31756 31758 28
25407 31756 31759 28
25408 31756 31760 28
25409 31761 31762 28
25410 31761 31763 28
25411 31761 31764 28
25412 31761 31765 28
25413 31766 31767 28
25414 31766 31768 28
25415 31766 31769 28
25416 31766 31770 28
25417 31771 31772 28
25418 31771 31773 28
25419 31771 31774 28
25420 31771 31775 28
25421 31776 31777 28
25422 31776 31778 28
25423 31776 31779 28
25424 31776 31780 28
25425 31781 31782 28
25426 31781 31783 28
25427 31781 31784 28
25428 31781 31785 28
25429 31786 31787 28
25430 31786 31788 28
25431 31786 31789 28
25432 31786 31790 28
25433 31791 31792 28
25434 31791 31793 28
25435 31791 31794 28
25436 31791 31795 28
25437 31796 31797 28
25438 31796 31798 28
25439 31796 31799 28
25440 31796 31800 28
25441 31801 31802 28
25442 31801 31803 28
25443 31801 31804 28
25444 31801 31805 28
25445 31806 31807 28
25446 31806 31808 28
25447 31806 31809 28
25448 31806 31810 28
25449 31811 31812 28
25450 31811 31813 28
25451 31811 31814 28
25452 31811 31815 28
25453 31816 31817 28
25454 31816 31818 28
25455 31816 31819 28
25456 31816 31820 28
25457 31821 31822 28
25458 31821 31823 28
25459 31821 31824 28
25460 31821 31825 28
25461 31826 31827 28
25462 31826 31828 28
25463 31826 31829 28
25464 31826 31830 28
25465 31831 31832 28
25466 31831 31833 28
25467 31831 31834 28
25468 31831 31835 28
25469 31836 31837 28
25470 31836 31838 28
25471 31836 31839 28
25472 31836 31840 28
25473 31841 31842 28
25474 31841 31843 28
25475 31841 31844 28
25476 31841 31845 28
25477 31846 31847 28
25478 31846 31848 28
25479 31846 31849 28
25480 31846 31850 28
25481 31851 31852 28
25482 31851 31853 28
25483 31851 31854 28
25484 31851 31855 28
25485 31856 31857 28
25486 31856 31858 28
25487 31856 31859 28
25488 31856 31860 28
25489 31861 31862 28
25490 31861 31863 28
25491 31861 31864 28
25492 31861 31865 28
25493 31866 31867 28
25494 31866 31868 28
25495 31866 31869 28
25496 31866 31870 28
25497 31871 31872 28
25498 31871 31873 28
25499 31871 31874 28
25500 31871 31875 28
25501 31876 31877 28
25502 31876 31878 28
25503 31876 31879 28
25504 31876 31880 28
25505 31881 31882 28
25506 31881 31883 28
25507 31881 31884 28
25508 31881 31885 28
25509 31886 31887 28
25510 31886 31888 28
25511 31886 31889 28
25512 31886 31890 28
25513 31891 31892 28
25514 31891 31893 28
25515 31891 31894 28
25516 31891 31895 28
25517 31896 31897 28
25518 31896 31898 28
25519 31896 31899 28
25520 31896 31900 28
25521 31901 31902 28
25522 31901 31903 28
25523 31901 31904 28
25524 31901 31905 28
25525 31906 31907 28
25526 31906 31908 28
25527 31906 31909 28
25528 31906 31910 28
25529 31911 31912 28
25530 31911 31913 28
25531 31911 31914 28
25532 31911 31915 28
25533 31916 31917 28
25534 31916 31918 28
25535 31916 31919 28
25536 31916 31920 28
25537 31921 31922 28
25538 31921 31923 28
25539 31921 31924 28
25540 31921 31925 28
25541 31926 31927 28
25542 31926 31928 28
25543 31926 31929 28
25544 31926 31930 28
25545 31931 31932 28
25546 31931 31933 28
25547 31931 31934 28
25548 31931 31935 28
25549 31936 31937 28
25550 31936 31938 28
25551 31936 31939 28
25552 31936 31940 28
25553 31941 31942 28
25554 31941 31943 28
25555 31941 31944 28
25556 31941 31945 28
25557 31946 31947 28
25558 31946 31948 28
25559 31946 31949 28
25560 31946 31950 28
25561 31951 31952 28
25562 31951 31953 28
25563 31951 31954 28
25564 31951 31955 28
25565 31956 31957 28
25566 31956 31958 28
25567 31956 31959 28
25568 31956 31960 28
25569 31961 31962 28
25570 31961 31963 28
25571 31961 31964 28
25572 31961 31965 28
25573 31966 31967 28
25574 31966 31968 28
25575 31966 31969 28
25576 31966 31970 28
25577 31971 31972 28
25578 31971 31973 28
25579 31971 31974 28
25580 31971 31975 28
25581 31976 31977 28
25582 31976 31978 28
25583 31976 31979 28
25584 31976 31980 28
25585 31981 31982 28
25586 31981 31983 28
25587 31981 31984 28
25588 31981 31985 28
25589 31986 31987 28
25590 31986 31988 28
25591 31986 31989 28
25592 31986 31990 28
25593 31991 31992 28
25594 31991 31993 28
25595 31991 31994 28
25596 31991 31995 28
25597 31996 31997 28
25598 31996 31998 28
25599 31996 31999 28
25600 31996 32000 28
25601 32001 32002 28
25602 32001 32003 28
25603 32001 32004 28
25604 32001 32005 28
25605 32006 32007 28
25606 32006 32008 28
25607 32006 32009 28
25608 32006 32010 28
25609 32011 32012 28
25610 32011 32013 28
25611 32011 32014 28
25612 32011 32015 28
25613 32016 32017 28
25614 32016 32018 28
25615 32016 32019 28
25616 32016 32020 28
25617 32021 32022 28
25618 32021 32023 28
25619 32021 32024 28
25620 32021 32025 28
25621 32026 32027 28
25622 32026 32028 28
25623 32026 32029 28
25624 32026 32030 28
25625 32031 32032 28
25626 32031 32033 28
25627 32031 32034 28
25628 32031 32035 28
25629 32036 32037 28
25630 32036 32038 28
25631 32036 32039 28
25632 32036 32040 28
25633 32041 32042 28
25634 32041 32043 28
25635 32041 32044 28
25636 32041 32045 28
25637 32046 32047 28
25638 32046 32048 28
25639 32046 32049 28
25640 32046 32050 28
25641 32051 32052 28
25642 32051 32053 28
25643 32051 32054 28
25644 32051 32055 28
25645 32056 32057 28
25646 32056 32058 28
25647 32056 32059 28
25648 32056 32060 28
25649 32061 32062 28
25650 32061 32063 28
25651 32061 32064 28
25652 32061 32065 28
25653 32066 32067 28
25654 32066 32068 28
25655 32066 32069 28
25656 32066 32070 28
25657 32071 32072 28
25658 32071 32073 28
25659 32071 32074 28
25660 32071 32075 28
25661 32076 32077 28
25662 32076 32078 28
25663 32076 32079 28
25664 32076 32080 28
25665 32081 32082 28
25666 32081 32083 28
25667 32081 32084 28
25668 32081 32085 28
25669 32086 32087 28
25670 32086 32088 28
25671 32086 32089 28
25672 32086 32090 28
25673 32091 32092 28
25674 32091 32093 28
25675 32091 32094 28
25676 32091 32095 28
25677 32096 32097 28
25678 32096 32098 28
25679 32096 32099 28
25680 32096 32100 28
25681 32101 32102 28
25682 32101 32103 28
25683 32101 32104 28
25684 32101 32105 28
25685 32106 32107 28
25686 32106 32108 28
25687 32106 32109 28
25688 32106 32110 28
25689 32111 32112 28
25690 32111 32113 28
25691 32111 32114 28
25692 32111 32115 28
25693 32116 32117 28
25694 32116 32118 28
25695 32116 32119 28
25696 32116 32120 28
25697 32121 32122 28
25698 32121 32123 28
25699 32121 32124 28
25700 32121 32125 28
25701 32126 32127 28
25702 32126 32128 28
25703 32126 32129 28
25704 32126 32130 28
25705 32131 32132 28
25706 32131 32133 28
25707 32131 32134 28
25708 32131 32135 28
25709 32136 32137 28
25710 32136 32138 28
25711 32136 32139 28
25712 32136 32140 28
25713 32141 32142 28
25714 32141 32143 28
25715 32141 32144 28
25716 32141 32145 28
25717 32146 32147 28
25718 32146 32148 28
25719 32146 32149 28
25720 32146 32150 28
25721 32151 32152 28
25722 32151 32153 28
25723 32151 32154 28
25724 32151 32155 28
25725 32156 32157 28
25726 32156 32158 28
25727 32156 32159 28
25728 32156 32160 28
25729 32161 32162 28
25730 32161 32163 28
25731 32161 32164 28
25732 32161 32165 28
25733 32166 32167 28
25734 32166 32168 28
25735 32166 32169 28
25736 32166 32170 28
25737 32171 32172 28
25738 32171 32173 28
25739 32171 32174 28
25740 32171 32175 28
25741 32176 32177 28
25742 32176 32178 28
25743 32176 32179 28
25744 32176 32180 28
25745 32181 32182 28
25746 32181 32183 28
25747 32181 32184 28
25748 32181 32185 28
25749 32186 32187 28
25750 32186 32188 28
25751 32186 32189 28
25752 32186 32190 28
25753 32191 32192 28
25754 32191 32193 28
25755 32191 32194 28
25756 32191 32195 28
25757 32196 32197 28
25758 32196 32198 28
25759 32196 32199 28
25760 32196 32200 28
25761 32201 32202 28
25762 32201 32203 28
25763 32201 32204 28
25764 32201 32205 28
25765 32206 32207 28
25766 32206 32208 28
25767 32206 32209 28
25768 32206 32210 28
25769 32211 32212 28
25770 32211 32213 28
25771 32211 32214 28
25772 32211 32215 28
25773 32216 32217 28
25774 32216 32218 28
25775 32216 32219 28
25776 32216 32220 28
25777 32221 32222 28
25778 32221 32223 28
25779 32221 32224 28
25780 32221 32225 28
25781 32226 32227 28
25782 32226 32228 28
25783 32226 32229 28
25784 32226 32230 28
25785 32231 32232 28
25786 32231 32233 28
25787 32231 32234 28
25788 32231 32235 28
25789 32236 32237 28
25790 32236 32238 28
25791 32236 32239 28
25792 32236 32240 28
25793 32241 32242 28
25794 32241 32243 28
25795 32241 32244 28
25796 32241 32245 28
25797 32246 32247 28
25798 32246 32248 28
25799 32246 32249 28
25800 32246 32250 28
25801 32251 32252 28
25802 32251 32253 28
25803 32251 32254 28
25804 32251 32255 28
25805 32256 32257 28
25806 32256 32258 28
25807 32256 32259 28
25808 32256 32260 28
25809 32261 32262 28
25810 32261 32263 28
25811 32261 32264 28
25812 32261 32265 28
25813 32266 32267 28
25814 32266 32268 28
25815 32266 32269 28
25816 32266 32270 28
25817 32271 32272 28
25818 32271 32273 28
25819 32271 32274 28
25820 32271 32275 28
25821 32276 32277 28
25822 32276 32278 28
25823 32276 32279 28
25824 32276 32280 28
25825 32281 32282 28
25826 32281 32283 28
25827 32281 32284 28
25828 32281 32285 28
25829 32286 32287 28
25830 32286 32288 28
25831 32286 32289 28
25832 32286 32290 28
25833 32291 32292 28
25834 32291 32293 28
25835 32291 32294 28
25836 32291 32295 28
25837 32296 32297 28
25838 32296 32298 28
25839 32296 32299 28
25840 32296 32300 28
25841 32301 32302 28
25842 32301 32303 28
25843 32301 32304 28
25844 32301 32305 28
25845 32306 32307 28
25846 32306 32308 28
25847 32306 32309 28
25848 32306 32310 28
25849 32311 32312 28
25850 32311 32313 28
25851 32311 32314 28
25852 32311 32315 28
25853 32316 32317 28
25854 32316 32318 28
25855 32316 32319 28
25856 32316 32320 28
25857 32321 32322 28
25858 32321 32323 28
25859 32321 32324 28
25860 32321 32325 28
25861 32326 32327 28
25862 32326 32328 28
25863 32326 32329 28
25864 32326 32330 28
25865 32331 32332 28
25866 32331 32333 28
25867 32331 32334 28
25868 32331 32335 28
25869 32336 32337 28
25870 32336 32338 28
25871 32336 32339 28
25872 32336 32340 28
25873 32341 32342 28
25874 32341 32343 28
25875 32341 32344 28
25876 32341 32345 28
25877 32346 32347 28
25878 32346 32348 28
25879 32346 32349 28
25880 32346 32350 28
25881 32351 32352 28
25882 32351 32353 28
25883 32351 32354 28
25884 32351 32355 28
25885 32356 32357 28
25886 32356 32358 28
25887 32356 32359 28
25888 32356 32360 28
25889 32361 32362 28
25890 32361 32363 28
25891 32361 32364 28
25892 32361 32365 28
25893 32366 32367 28
25894 32366 32368 28
25895 32366 32369 28
25896 32366 32370 28
25897 32371 32372 28
25898 32371 32373 28
25899 32371 32374 28
25900 32371 32375 28
25901 32376 32377 28
25902 32376 32378 28
25903 32376 32379 28
25904 32376 32380 28
25905 32381 32382 28
25906 32381 32383 28
25907 32381 32384 28
25908 32381 32385 28
25909 32386 32387 28
25910 32386 32388 28
25911 32386 32389 28
25912 32386 32390 28
25913 32391 32392 28
25914 32391 32393 28
25915 32391 32394 28
25916 32391 32395 28
25917 32396 32397 28
25918 32396 32398 28
25919 32396 32399 28
25920 32396 32400 28
25921 32401 32402 28
25922 32401 32403 28
25923 32401 32404 28
25924 32401 32405 28
25925 32406 32407 28
25926 32406 32408 28
25927 32406 32409 28
25928 32406 32410 28
25929 32411 32412 28
25930 32411 32413 28
25931 32411 32414 28
25932 32411 32415 28
25933 32416 32417 28
25934 32416 32418 28
25935 32416 32419 28
25936 32416 32420 28
25937 32421 32422 28
25938 32421 32423 28
25939 32421 32424 28
25940 32421 32425 28
25941 32426 32427 28
25942 32426 32428 28
25943 32426 32429 28
25944 32426 32430 28
25945 32431 32432 28
25946 32431 32433 28
25947 32431 32434 28
25948 32431 32435 28
25949 32436 32437 28
25950 32436 32438 28
25951 32436 32439 28
25952 32436 32440 28
25953 32441 32442 28
25954 32441 32443 28
25955 32441 32444 28
25956 32441 32445 28
25957 32446 32447 28
25958 32446 32448 28
25959 32446 32449 28
25960 32446 32450 28
25961 32451 32452 28
25962 32451 32453 28
25963 32451 32454 28
25964 32451 32455 28
25965 32456 32457 28
25966 32456 32458 28
25967 32456 32459 28
25968 32456 32460 28
25969 32461 32462 28
25970 32461 32463 28
25971 32461 32464 28
25972 32461 32465 28
25973 32466 32467 28
25974 32466 32468 28
25975 32466 32469 28
25976 32466 32470 28
25977 32471 32472 28
25978 32471 32473 28
25979 32471 32474 28
25980 32471 32475 28
25981 32476 32477 28
25982 32476 32478 28
25983 32476 32479 28
25984 32476 32480 28
25985 32481 32482 28
25986 32481 32483 28
25987 32481 32484 28
25988 32481 32485 28
25989 32486 32487 28
25990 32486 32488 28
25991 32486 32489 28
25992 32486 32490 28
25993 32491 32492 28
25994 32491 32493 28
25995 32491 32494 28
25996 32491 32495 28
25997 32496 32497 28
25998 32496 32498 28
25999 32496 32499 28
26000 32496 32500 28
26001 32501 32502 28
26002 32501 32503 28
26003 32501 32504 28
26004 32501 32505 28
26005 32506 32507 28
26006 32506 32508 28
26007 32506 32509 28
26008 32506 32510 28
26009 32511 32512 28
26010 32511 32513 28
26011 32511 32514 28
26012 32511 32515 28
26013 32516 32517 28
26014 32516 32518 28
26015 32516 32519 28
26016 32516 32520 28
26017 32521 32522 28
26018 32521 32523 28
26019 32521 32524 28
26020 32521 32525 28
26021 32526 32527 28
26022 32526 32528 28
26023 32526 32529 28
26024 32526 32530 28
26025 32531 32532 28
26026 32531 32533 28
26027 32531 32534 28
26028 32531 32535 28
26029 32536 32537 28
26030 32536 32538 28
26031 32536 32539 28
26032 32536 32540 28
26033 32541 32542 28
26034 32541 32543 28
26035 32541 32544 28
26036 32541 32545 28
26037 32546 32547 28
26038 32546 32548 28
26039 32546 32549 28
26040 32546 32550 28
26041 32551 32552 28
26042 32551 32553 28
26043 32551 32554 28
26044 32551 32555 28
26045 32556 32557 28
26046 32556 32558 28
26047 32556 32559 28
26048 32556 32560 28
26049 32561 32562 28
26050 32561 32563 28
26051 32561 32564 28
26052 32561 32565 28
26053 32566 32567 28
26054 32566 32568 28
26055 32566 32569 28
26056 32566 32570 28
26057 32571 32572 28
26058 32571 32573 28
26059 32571 32574 28
26060 32571 32575 28
26061 32576 32577 28
26062 32576 32578 28
26063 32576 32579 28
26064 32576 32580 28
26065 32581 32582 28
26066 32581 32583 28
26067 32581 32584 28
26068 32581 32585 28
26069 32586 32587 28
26070 32586 32588 28
26071 32586 32589 28
26072 32586 32590 28
26073 32591 32592 28
26074 32591 32593 28
26075 32591 32594 28
26076 32591 32595 28
26077 32596 32597 28
26078 32596 32598 28
26079 32596 32599 28
26080 32596 32600 28
26081 32601 32602 28
26082 32601 32603 28
26083 32601 32604 28
26084 32601 32605 28
26085 32606 32607 28
26086 32606 32608 28
26087 32606 32609 28
26088 32606 32610 28
26089 32611 32612 28
26090 32611 32613 28
26091 32611 32614 28
26092 32611 32615 28
26093 32616 32617 28
26094 32616 32618 28
26095 32616 32619 28
26096 32616 32620 28
26097 32621 32622 28
26098 32621 32623 28
26099 32621 32624 28
26100 32621 32625 28
26101 32626 32627 28
26102 32626 32628 28
26103 32626 32629 28
26104 32626 32630 28
26105 32631 32632 28
26106 32631 32633 28
26107 32631 32634 28
26108 32631 32635 28
26109 32636 32637 28
26110 32636 32638 28
26111 32636 32639 28
26112 32636 32640 28
26113 32641 32642 28
26114 32641 32643 28
26115 32641 32644 28
26116 32641 32645 28
26117 32646 32647 28
26118 32646 32648 28
26119 32646 32649 28
26120 32646 32650 28
26121 32651 32652 28
26122 32651 32653 28
26123 32651 32654 28
26124 32651 32655 28
26125 32656 32657 28
26126 32656 32658 28
26127 32656 32659 28
26128 32656 32660 28
26129 32661 32662 28
26130 32661 32663 28
26131 32661 32664 28
26132 32661 32665 28
26133 32666 32667 28
26134 32666 32668 28
26135 32666 32669 28
26136 32666 32670 28
26137 32671 32672 28
26138 32671 32673 28
26139 32671 32674 28
26140 32671 32675 28
26141 32676 32677 28
26142 32676 32678 28
26143 32676 32679 28
26144 32676 32680 28
26145 32681 32682 28
26146 32681 32683 28
26147 32681 32684 28
26148 32681 32685 28
26149 32686 32687 28
26150 32686 32688 28
26151 32686 32689 28
26152 32686 32690 28
26153 32691 32692 28
26154 32691 32693 28
26155 32691 32694 28
26156 32691 32695 28
26157 32696 32697 28
26158 32696 32698 28
26159 32696 32699 28
26160 32696 32700 28
26161 32701 32702 28
26162 32701 32703 28
26163 32701 32704 28
26164 32701 32705 28
26165 32706 32707 28
26166 32706 32708 28
26167 32706 32709 28
26168 32706 32710 28
26169 32711 32712 28
26170 32711 32713 28
26171 32711 32714 28
26172 32711 32715 28
26173 32716 32717 28
26174 32716 32718 28
26175 32716 32719 28
26176 32716 32720 28
26177 32721 32722 28
26178 32721 32723 28
26179 32721 32724 28
26180 32721 32725 28
26181 32726 32727 28
26182 32726 32728 28
26183 32726 32729 28
26184 32726 32730 28
26185 32731 32732 28
26186 32731 32733 28
26187 32731 32734 28
26188 32731 32735 28
26189 32736 32737 28
26190 32736 32738 28
26191 32736 32739 28
26192 32736 32740 28
26193 32741 32742 28
26194 32741 32743 28
26195 32741 32744 28
26196 32741 32745 28
26197 32746 32747 28
26198 32746 32748 28
26199 32746 32749 28
26200 32746 32750 28
26201 32751 32752 28
26202 32751 32753 28
26203 32751 32754 28
26204 32751 32755 28
26205 32756 32757 28
26206 32756 32758 28
26207 32756 32759 28
26208 32756 32760 28
26209 32761 32762 28
26210 32761 32763 28
26211 32761 32764 28
26212 32761 32765 28
26213 32766 32767 28
26214 32766 32768 28
26215 32766 32769 28
26216 32766 32770 28
26217 32771 32772 28
26218 32771 32773 28
26219 32771 32774 28
26220 32771 32775 28
26221 32776 32777 28
26222 32776 32778 28
26223 32776 32779 28
26224 32776 32780 28
26225 32781 32782 28
26226 32781 32783 28
26227 32781 32784 28
26228 32781 32785 28
26229 32786 32787 28
26230 32786 32788 28
26231 32786 32789 28
26232 32786 32790 28
26233 32791 32792 28
26234 32791 32793 28
26235 32791 32794 28
26236 32791 32795 28
26237 32796 32797 28
26238 32796 32798 28
26239 32796 32799 28
26240 32796 32800 28
26241 32801 32802 28
26242 32801 32803 28
26243 32801 32804 28
26244 32801 32805 28
26245 32806 32807 28
26246 32806 32808 28
26247 32806 32809 28
26248 32806 32810 28
26249 32811 32812 28
26250 32811 32813 28
26251 32811 32814 28
26252 32811 32815 28
26253 32816 32817 28
26254 32816 32818 28
26255 32816 32819 28
26256 32816 32820 28
26257 32821 32822 28
26258 32821 32823 28
26259 32821 32824 28
26260 32821 32825 28
26261 32826 32827 28
26262 32826 32828 28
26263 32826 32829 28
26264 32826 32830 28
26265 32831 32832 28
26266 32831 32833 28
26267 32831 32834 28
26268 32831 32835 28
26269 32836 32837 28
26270 32836 32838 28
26271 32836 32839 28
26272 32836 32840 28
26273 32841 32842 28
26274 32841 32843 28
26275 32841 32844 28
26276 32841 32845 28
26277 32846 32847 28
26278 32846 32848 28
26279 32846 32849 28
26280 32846 32850 28
26281 32851 32852 28
26282 32851 32853 28
26283 32851 32854 28
26284 32851 32855 28
26285 32856 32857 28
26286 32856 32858 28
26287 32856 32859 28
26288 32856 32860 28
26289 32861 32862 28
26290 32861 32863 28
26291 32861 32864 28
26292 32861 32865 28
26293 32866 32867 28
26294 32866 32868 28
26295 32866 32869 28
26296 32866 32870 28
26297 32871 32872 28
26298 32871 32873 28
26299 32871 32874 28
26300 32871 32875 28
26301 32876 32877 28
26302 32876 32878 28
26303 32876 32879 28
26304 32876 32880 28
26305 32881 32882 28
26306 32881 32883 28
26307 32881 32884 28
26308 32881 32885 28
26309 32886 32887 28
26310 32886 32888 28
26311 32886 32889 28
26312 32886 32890 28
26313 32891 32892 28
26314 32891 32893 28
26315 32891 32894 28
26316 32891 32895 28
26317 32896 32897 28
26318 32896 32898 28
26319 32896 32899 28
26320 32896 32900 28
26321 32901 32902 28
26322 32901 32903 28
26323 32901 32904 28
26324 32901 32905 28
26325 32906 32907 28
26326 32906 32908 28
26327 32906 32909 28
26328 32906 32910 28
26329 32911 32912 28
26330 32911 32913 28
26331 32911 32914 28
26332 32911 32915 28
26333 32916 32917 28
26334 32916 32918 28
26335 32916 32919 28
26336 32916 32920 28
26337 32921 32922 28
26338 32921 32923 28
26339 32921 32924 28
26340 32921 32925 28
26341 32926 32927 28
26342 32926 32928 28
26343 32926 32929 28
26344 32926 32930 28
26345 32931 32932 28
26346 32931 32933 28
26347 32931 32934 28
26348 32931 32935 28
26349 32936 32937 28
26350 32936 32938 28
26351 32936 32939 28
26352 32936 32940 28
26353 32941 32942 28
26354 32941 32943 28
26355 32941 32944 28
26356 32941 32945 28
26357 32946 32947 28
26358 32946 32948 28
26359 32946 32949 28
26360 32946 32950 28
26361 32951 32952 28
26362 32951 32953 28
26363 32951 32954 28
26364 32951 32955 28
26365 32956 32957 28
26366 32956 32958 28
26367 32956 32959 28
26368 32956 32960 28
26369 32961 32962 28
26370 32961 32963 28
26371 32961 32964 28
26372 32961 32965 28
26373 32966 32967 28
26374 32966 32968 28
26375 32966 32969 28
26376 32966 32970 28
26377 32971 32972 28
26378 32971 32973 28
26379 32971 32974 28
26380 32971 32975 28
26381 32976 32977 28
26382 32976 32978 28
26383 32976 32979 28
26384 32976 32980 28
26385 32981 32982 28
26386 32981 32983 28
26387 32981 32984 28
26388 32981 32985 28
26389 32986 32987 28
26390 32986 32988 28
26391 32986 32989 28
26392 32986 32990 28
26393 32991 32992 28
26394 32991 32993 28
26395 32991 32994 28
26396 32991 32995 28
26397 32996 32997 28
26398 32996 32998 28
26399 32996 32999 28
26400 32996 33000 28
26401 33001 33002 28
26402 33001 33003 28
26403 33001 33004 28
26404 33001 33005 28
26405 33006 33007 28
26406 33006 33008 28
26407 33006 33009 28
26408 33006 33010 28
26409 33011 33012 28
26410 33011 33013 28
26411 33011 33014 28
26412 33011 33015 28
26413 33016 33017 28
26414 33016 33018 28
26415 33016 33019 28
26416 33016 33020 28
26417 33021 33022 28
26418 33021 33023 28
26419 33021 33024 28
26420 33021 33025 28
26421 33026 33027 28
26422 33026 33028 28
26423 33026 33029 28
26424 33026 33030 28
26425 33031 33032 28
26426 33031 33033 28
26427 33031 33034 28
26428 33031 33035 28
26429 33036 33037 28
26430 33036 33038 28
26431 33036 33039 28
26432 33036 33040 28
26433 33041 33042 28
26434 33041 33043 28
26435 33041 33044 28
26436 33041 33045 28
26437 33046 33047 28
26438 33046 33048 28
26439 33046 33049 28
26440 33046 33050 28
26441 33051 33052 28
26442 33051 33053 28
26443 33051 33054 28
26444 33051 33055 28
26445 33056 33057 28
26446 33056 33058 28
26447 33056 33059 28
26448 33056 33060 28
26449 33061 33062 28
26450 33061 33063 28
26451 33061 33064 28
26452 33061 33065 28
26453 33066 33067 28
26454 33066 33068 28
26455 33066 33069 28
26456 33066 33070 28
26457 33071 33072 28
26458 33071 33073 28
26459 33071 33074 28
26460 33071 33075 28
26461 33076 33077 28
26462 33076 33078 28
26463 33076 33079 28
26464 33076 33080 28
26465 33081 33082 28
26466 33081 33083 28
26467 33081 33084 28
26468 33081 33085 28
26469 33086 33087 28
26470 33086 33088 28
26471 33086 33089 28
26472 33086 33090 28
26473 33091 33092 28
26474 33091 33093 28
26475 33091 33094 28
26476 33091 33095 28
26477 33096 33097 28
26478 33096 33098 28
26479 33096 33099 28
26480 33096 33100 28
26481 33101 33102 28
26482 33101 33103 28
26483 33101 33104 28
26484 33101 33105 28
26485 33106 33107 28
26486 33106 33108 28
26487 33106 33109 28
26488 33106 33110 28
26489 33111 33112 28
26490 33111 33113 28
26491 33111 33114 28
26492 33111 33115 28
26493 33116 33117 28
26494 33116 33118 28
26495 33116 33119 28
26496 33116 33120 28
26497 33121 33122 28
26498 33121 33123 28
26499 33121 33124 28
26500 33121 33125 28
26501 33126 33127 28
26502 33126 33128 28
26503 33126 33129 28
26504 33126 33130 28
26505 33131 33132 28
26506 33131 33133 28
26507 33131 33134 28
26508 33131 33135 28
26509 33136 33137 28
26510 33136 33138 28
26511 33136 33139 28
26512 33136 33140 28
26513 33141 33142 28
26514 33141 33143 28
26515 33141 33144 28
26516 33141 33145 28
26517 33146 33147 28
26518 33146 33148 28
26519 33146 33149 28
26520 33146 33150 28
26521 33151 33152 28
26522 33151 33153 28
26523 33151 33154 28
26524 33151 33155 28
26525 33156 33157 28
26526 33156 33158 28
26527 33156 33159 28
26528 33156 33160 28
26529 33161 33162 28
26530 33161 33163 28
26531 33161 33164 28
26532 33161 33165 28
26533 33166 33167 28
26534 33166 33168 28
26535 33166 33169 28
26536 33166 33170 28
26537 33171 33172 28
26538 33171 33173 28
26539 33171 33174 28
26540 33171 33175 28
26541 33176 33177 28
26542 33176 33178 28
26543 33176 33179 28
26544 33176 33180 28
26545 33181 33182 28
26546 33181 33183 28
26547 33181 33184 28
26548 33181 33185 28
26549 33186 33187 28
26550 33186 33188 28
26551 33186 33189 28
26552 33186 33190 28
26553 33191 33192 28
26554 33191 33193 28
26555 33191 33194 28
26556 33191 33195 28
26557 33196 33197 28
26558 33196 33198 28
26559 33196 33199 28
26560 33196 33200 28
26561 33201 33202 28
26562 33201 33203 28
26563 33201 33204 28
26564 33201 33205 28
26565 33206 33207 28
26566 33206 33208 28
26567 33206 33209 28
26568 33206 33210 28
26569 33211 33212 28
26570 33211 33213 28
26571 33211 33214 28
26572 33211 33215 28
26573 33216 33217 28
26574 33216 33218 28
26575 33216 33219 28
26576 33216 33220 28
26577 33221 33222 28
26578 33221 33223 28
26579 33221 33224 28
26580 33221 33225 28
26581 33226 33227 28
26582 33226 33228 28
26583 33226 33229 28
26584 33226 33230 28
26585 33231 33232 28
26586 33231 33233 28
26587 33231 33234 28
26588 33231 33235 28
26589 33236 33237 28
26590 33236 33238 28
26591 33236 33239 28
26592 33236 33240 28
26593 33241 33242 28
26594 33241 33243 28
26595 33241 33244 28
26596 33241 33245 28
26597 33246 33247 28
26598 33246 33248 28
26599 33246 33249 28
26600 33246 33250 28
26601 33251 33252 28
26602 33251 33253 28
26603 33251 33254 28
26604 33251 33255 28
26605 33256 33257 28
26606 33256 33258 28
26607 33256 33259 28
26608 33256 33260 28
26609 33261 33262 28
26610 33261 33263 28
26611 33261 33264 28
26612 33261 33265 28
26613 33266 33267 28
26614 33266 33268 28
26615 33266 33269 28
26616 33266 33270 28
26617 33271 33272 28
26618 33271 33273 28
26619 33271 33274 28
26620 33271 33275 28
26621 33276 33277 28
26622 33276 33278 28
26623 33276 33279 28
26624 33276 33280 28
26625 33281 33282 28
26626 33281 33283 28
26627 33281 33284 28
26628 33281 33285 28
26629 33286 33287 28
26630 33286 33288 28
26631 33286 33289 28
26632 33286 33290 28
26633 33291 33292 28
26634 33291 33293 28
26635 33291 33294 28
26636 33291 33295 28
26637 33296 33297 28
26638 33296 33298 28
26639 33296 33299 28
26640 33296 33300 28
26641 33301 33302 28
26642 33301 33303 28
26643 33301 33304 28
26644 33301 33305 28
26645 33306 33307 28
26646 33306 33308 28
26647 33306 33309 28
26648 33306 33310 28
26649 33311 33312 28
26650 33311 33313 28
26651 33311 33314 28
26652 33311 33315 28
26653 33316 33317 28
26654 33316 33318 28
26655 33316 33319 28
26656 33316 33320 28
26657 33321 33322 28
26658 33321 33323 28
26659 33321 33324 28
26660 33321 33325 28
26661 33326 33327 28
26662 33326 33328 28
26663 33326 33329 28
26664 33326 33330 28
26665 33331 33332 28
26666 33331 33333 28
26667 33331 33334 28
26668 33331 33335 28
26669 33336 33337 28
26670 33336 33338 28
26671 33336 33339 28
26672 33336 33340 28
26673 33341 33342 28
26674 33341 33343 28
26675 33341 33344 28
26676 33341 33345 28
26677 33346 33347 28
26678 33346 33348 28
26679 33346 33349 28
26680 33346 33350 28
26681 33351 33352 28
26682 33351 33353 28
26683 33351 33354 28
26684 33351 33355 28
26685 33356 33357 28
26686 33356 33358 28
26687 33356 33359 28
26688 33356 33360 28
26689 33361 33362 28
26690 33361 33363 28
26691 33361 33364 28
26692 33361 33365 28
26693 33366 33367 28
26694 33366 33368 28
26695 33366 33369 28
26696 33366 33370 28
26697 33371 33372 28
26698 33371 33373 28
26699 33371 33374 28
26700 33371 33375 28
26701 33376 33377 28
26702 33376 33378 28
26703 33376 33379 28
26704 33376 33380 28
26705 33381 33382 28
26706 33381 33383 28
26707 33381 33384 28
26708 33381 33385 28
26709 33386 33387 28
26710 33386 33388 28
26711 33386 33389 28
26712 33386 33390 28
26713 33391 33392 28
26714 33391 33393 28
26715 33391 33394 28
26716 33391 33395 28
26717 33396 33397 28
26718 33396 33398 28
26719 33396 33399 28
26720 33396 33400 28
26721 33401 33402 28
26722 33401 33403 28
26723 33401 33404 28
26724 33401 33405 28
26725 33406 33407 28
26726 33406 33408 28
26727 33406 33409 28
26728 33406 33410 28
26729 33411 33412 28
26730 33411 33413 28
26731 33411 33414 28
26732 33411 33415 28
26733 33416 33417 28
26734 33416 33418 28
26735 33416 33419 28
26736 33416 33420 28
26737 33421 33422 28
26738 33421 33423 28
26739 33421 33424 28
26740 33421 33425 28
26741 33426 33427 28
26742 33426 33428 28
26743 33426 33429 28
26744 33426 33430 28
26745 33431 33432 28
26746 33431 33433 28
26747 33431 33434 28
26748 33431 33435 28
26749 33436 33437 28
26750 33436 33438 28
26751 33436 33439 28
26752 33436 33440 28
26753 33441 33442 28
26754 33441 33443 28
26755 33441 33444 28
26756 33441 33445 28
26757 33446 33447 28
26758 33446 33448 28
26759 33446 33449 28
26760 33446 33450 28
26761 33451 33452 28
26762 33451 33453 28
26763 33451 33454 28
26764 33451 33455 28
26765 33456 33457 28
26766 33456 33458 28
26767 33456 33459 28
26768 33456 33460 28
26769 33461 33462 28
26770 33461 33463 28
26771 33461 33464 28
26772 33461 33465 28
26773 33466 33467 28
26774 33466 33468 28
26775 33466 33469 28
26776 33466 33470 28
26777 33471 33472 28
26778 33471 33473 28
26779 33471 33474 28
26780 33471 33475 28
26781 33476 33477 28
26782 33476 33478 28
26783 33476 33479 28
26784 33476 33480 28
26785 33481 33482 28
26786 33481 33483 28
26787 33481 33484 28
26788 33481 33485 28
26789 33486 33487 28
26790 33486 33488 28
26791 33486 33489 28
26792 33486 33490 28
26793 33491 33492 28
26794 33491 33493 28
26795 33491 33494 28
26796 33491 33495 28
26797 33496 33497 28
26798 33496 33498 28
26799 33496 33499 28
26800 33496 33500 28
26801 33501 33502 28
26802 33501 33503 28
26803 33501 33504 28
26804 33501 33505 28
26805 33506 33507 28
26806 33506 33508 28
26807 33506 33509 28
26808 33506 33510 28
26809 33511 33512 28
26810 33511 33513 28
26811 33511 33514 28
26812 33511 33515 28
26813 33516 33517 28
26814 33516 33518 28
26815 33516 33519 28
26816 33516 33520 28
26817 33521 33522 28
26818 33521 33523 28
26819 33521 33524 28
26820 33521 33525 28
26821 33526 33527 28
26822 33526 33528 28
26823 33526 33529 28
26824 33526 33530 28
26825 33531 33532 28
26826 33531 33533 28
26827 33531 33534 28
26828 33531 33535 28
26829 33536 33537 28
26830 33536 33538 28
26831 33536 33539 28
26832 33536 33540 28
26833 33541 33542 28
26834 33541 33543 28
26835 33541 33544 28
26836 33541 33545 28
26837 33546 33547 28
26838 33546 33548 28
26839 33546 33549 28
26840 33546 33550 28
26841 33551 33552 28
26842 33551 33553 28
26843 33551 33554 28
26844 33551 33555 28
26845 33556 33557 28
26846 33556 33558 28
26847 33556 33559 28
26848 33556 33560 28
26849 33561 33562 28
26850 33561 33563 28
26851 33561 33564 28
26852 33561 33565 28
26853 33566 33567 28
26854 33566 33568 28
26855 33566 33569 28
26856 33566 33570 28
26857 33571 33572 28
26858 33571 33573 28
26859 33571 33574 28
26860 33571 33575 28
26861 33576 33577 28
26862 33576 33578 28
26863 33576 33579 28
26864 33576 33580 28
26865 33581 33582 28
26866 33581 33583 28
26867 33581 33584 28
26868 33581 33585 28
26869 33586 33587 28
26870 33586 33588 28
26871 33586 33589 28
26872 33586 33590 28
26873 33591 33592 28
26874 33591 33593 28
26875 33591 33594 28
26876 33591 33595 28
26877 33596 33597 28
26878 33596 33598 28
26879 33596 33599 28
26880 33596 33600 28
26881 33601 33602 28
26882 33601 33603 28
26883 33601 33604 28
26884 33601 33605 28
26885 33606 33607 28
26886 33606 33608 28
26887 33606 33609 28
26888 33606 33610 28
26889 33611 33612 28
26890 33611 33613 28
26891 33611 33614 28
26892 33611 33615 28
26893 33616 33617 28
26894 33616 33618 28
26895 33616 33619 28
26896 33616 33620 28
26897 33621 33622 28
26898 33621 33623 28
26899 33621 33624 28
26900 33621 33625 28
26901 33626 33627 28
26902 33626 33628 28
26903 33626 33629 28
26904 33626 33630 28
26905 33631 33632 28
26906 33631 33633 28
26907 33631 33634 28
26908 33631 33635 28
26909 33636 33637 28
26910 33636 33638 28
26911 33636 33639 28
26912 33636 33640 28
26913 33641 33642 28
26914 33641 33643 28
26915 33641 33644 28
26916 33641 33645 28
26917 33646 33647 28
26918 33646 33648 28
26919 33646 33649 28
26920 33646 33650 28
26921 33651 33652 28
26922 33651 33653 28
26923 33651 33654 28
26924 33651 33655 28
26925 33656 33657 28
26926 33656 33658 28
26927 33656 33659 28
26928 33656 33660 28
26929 33661 33662 28
26930 33661 33663 28
26931 33661 33664 28
26932 33661 33665 28
26933 33666 33667 28
26934 33666 33668 28
26935 33666 33669 28
26936 33666 33670 28
26937 33671 33672 28
26938 33671 33673 28
26939 33671 33674 28
26940 33671 33675 28
26941 33676 33677 28
26942 33676 33678 28
26943 33676 33679 28
26944 33676 33680 28
26945 33681 33682 28
26946 33681 33683 28
26947 33681 33684 28
26948 33681 33685 28
26949 33686 33687 28
26950 33686 33688 28
26951 33686 33689 28
26952 33686 33690 28
26953 33691 33692 28
26954 33691 33693 28
26955 33691 33694 28
26956 33691 33695 28
26957 33696 33697 28
26958 33696 33698 28
26959 33696 33699 28
26960 33696 33700 28
26961 33701 33702 28
26962 33701 33703 28
26963 33701 33704 28
26964 33701 33705 28
26965 33706 33707 28
26966 33706 33708 28
26967 33706 33709 28
26968 33706 33710 28
26969 33711 33712 28
26970 33711 33713 28
26971 33711 33714 28
26972 33711 33715 28
26973 33716 33717 28
26974 33716 33718 28
26975 33716 33719 28
26976 33716 33720 28
26977 33721 33722 28
26978 33721 33723 28
26979 33721 33724 28
26980 33721 33725 28
26981 33726 33727 28
26982 33726 33728 28
26983 33726 33729 28
26984 33726 33730 28
26985 33731 33732 28
26986 33731 33733 28
26987 33731 33734 28
26988 33731 33735 28
26989 33736 33737 28
26990 33736 33738 28
26991 33736 33739 28
26992 33736 33740 28
26993 33741 33742 28
26994 33741 33743 28
26995 33741 33744 28
26996 33741 33745 28
26997 33746 33747 28
26998 33746 33748 28
26999 33746 33749 28
27000 33746 33750 28
27001 33751 33752 28
27002 33751 33753 28
27003 33751 33754 28
27004 33751 33755 28
27005 33756 33757 28
27006 33756 33758 28
27007 33756 33759 28
27008 33756 33760 28
27009 33761 33762 28
27010 33761 33763 28
27011 33761 33764 28
27012 33761 33765 28
27013 33766 33767 28
27014 33766 33768 28
27015 33766 33769 28
27016 33766 33770 28
27017 33771 33772 28
27018 33771 33773 28
27019 33771 33774 28
27020 33771 33775 28
27021 33776 33777 28
27022 33776 33778 28
27023 33776 33779 28
27024 33776 33780 28
27025 33781 33782 28
27026 33781 33783 28
27027 33781 33784 28
27028 33781 33785 28
27029 33786 33787 28
27030 33786 33788 28
27031 33786 33789 28
27032 33786 33790 28
27033 33791 33792 28
27034 33791 33793 28
27035 33791 33794 28
27036 33791 33795 28
27037 33796 33797 28
27038 33796 33798 28
27039 33796 33799 28
27040 33796 33800 28
27041 33801 33802 28
27042 33801 33803 28
27043 33801 33804 28
27044 33801 33805 28
27045 33806 33807 28
27046 33806 33808 28
27047 33806 33809 28
27048 33806 33810 28
27049 33811 33812 28
27050 33811 33813 28
27051 33811 33814 28
27052 33811 33815 28
27053 33816 33817 28
27054 33816 33818 28
27055 33816 33819 28
27056 33816 33820 28
27057 33821 33822 28
27058 33821 33823 28
27059 33821 33824 28
27060 33821 33825 28
27061 33826 33827 28
27062 33826 33828 28
27063 33826 33829 28
27064 33826 33830 28
27065 33831 33832 28
27066 33831 33833 28
27067 33831 33834 28
27068 33831 33835 28
27069 33836 33837 28
27070 33836 33838 28
27071 33836 33839 28
27072 33836 33840 28
27073 33841 33842 28
27074 33841 33843 28
27075 33841 33844 28
27076 33841 33845 28
27077 33846 33847 28
27078 33846 33848 28
27079 33846 33849 28
27080 33846 33850 28
27081 33851 33852 28
27082 33851 33853 28
27083 33851 33854 28
27084 33851 33855 28
27085 33856 33857 28
27086 33856 33858 28
27087 33856 33859 28
27088 33856 33860 28
27089 33861 33862 28
27090 33861 33863 28
27091 33861 33864 28
27092 33861 33865 28
27093 33866 33867 28
27094 33866 33868 28
27095 33866 33869 28
27096 33866 33870 28
27097 33871 33872 28
27098 33871 33873 28
27099 33871 33874 28
27100 33871 33875 28
27101 33876 33877 28
27102 33876 33878 28
27103 33876 33879 28
27104 33876 33880 28
27105 33881 33882 28
27106 33881 33883 28
27107 33881 33884 28
27108 33881 33885 28
27109 33886 33887 28
27110 33886 33888 28
27111 33886 33889 28
27112 33886 33890 28
27113 33891 33892 28
27114 33891 33893 28
27115 33891 33894 28
27116 33891 33895 28
27117 33896 33897 28
27118 33896 33898 28
27119 33896 33899 28
27120 33896 33900 28
27121 33901 33902 28
27122 33901 33903 28
27123 33901 33904 28
27124 33901 33905 28
27125 33906 33907 28
27126 33906 33908 28
27127 33906 33909 28
27128 33906 33910 28
27129 33911 33912 28
27130 33911 33913 28
27131 33911 33914 28
27132 33911 33915 28
27133 33916 33917 28
27134 33916 33918 28
27135 33916 33919 28
27136 33916 33920 28
27137 33921 33922 28
27138 33921 33923 28
27139 33921 33924 28
27140 33921 33925 28
27141 33926 33927 28
27142 33926 33928 28
27143 33926 33929 28
27144 33926 33930 28
27145 33931 33932 28
27146 33931 33933 28
27147 33931 33934 28
27148 33931 33935 28
27149 33936 33937 28
27150 33936 33938 28
27151 33936 33939 28
27152 33936 33940 28
27153 33941 33942 28
27154 33941 33943 28
27155 33941 33944 28
27156 33941 33945 28
27157 33946 33947 28
27158 33946 33948 28
27159 33946 33949 28
27160 33946 33950 28
27161 33951 33952 28
27162 33951 33953 28
27163 33951 33954 28
27164 33951 33955 28
27165 33956 33957 28
27166 33956 33958 28
27167 33956 33959 28
27168 33956 33960 28
27169 33961 33962 28
27170 33961 33963 28
27171 33961 33964 28
27172 33961 33965 28
27173 33966 33967 28
27174 33966 33968 28
27175 33966 33969 28
27176 33966 33970 28
27177 33971 33972 28
27178 33971 33973 28
27179 33971 33974 28
27180 33971 33975 28
27181 33976 33977 28
27182 33976 33978 28
27183 33976 33979 28
27184 33976 33980 28
27185 33981 33982 28
27186 33981 33983 28
27187 33981 33984 28
27188 33981 33985 28
27189 33986 33987 28
27190 33986 33988 28
27191 33986 33989 28
27192 33986 33990 28
27193 33991 33992 28
27194 33991 33993 28
27195 33991 33994 28
27196 33991 33995 28
27197 33996 33997 28
27198 33996 33998 28
27199 33996 33999 28
27200 33996 34000 28
27201 34001 34002 28
27202 34001 34003 28
27203 34001 34004 28
27204 34001 34005 28
27205 34006 34007 28
27206 34006 34008 28
27207 34006 34009 28
27208 34006 34010 28
27209 34011 34012 28
27210 34011 34013 28
27211 34011 34014 28
27212 34011 34015 28
27213 34016 34017 28
27214 34016 34018 28
27215 34016 34019 28
27216 34016 34020 28
27217 34021 34022 28
27218 34021 34023 28
27219 34021 34024 28
27220 34021 34025 28
27221 34026 34027 28
27222 34026 34028 28
27223 34026 34029 28
27224 34026 34030 28
27225 34031 34032 28
27226 34031 34033 28
27227 34031 34034 28
27228 34031 34035 28
27229 34036 34037 28
27230 34036 34038 28
27231 34036 34039 28
27232 34036 34040 28
27233 34041 34042 28
27234 34041 34043 28
27235 34041 34044 28
27236 34041 34045 28
27237 34046 34047 28
27238 34046 34048 28
27239 34046 34049 28
27240 34046 34050 28
27241 34051 34052 28
27242 34051 34053 28
27243 34051 34054 28
27244 34051 34055 28
27245 34056 34057 28
27246 34056 34058 28
27247 34056 34059 28
27248 34056 34060 28
27249 34061 34062 28
27250 34061 34063 28
27251 34061 34064 28
27252 34061 34065 28
27253 34066 34067 28
27254 34066 34068 28
27255 34066 34069 28
27256 34066 34070 28
27257 34071 34072 28
27258 34071 34073 28
27259 34071 34074 28
27260 34071 34075 28
27261 34076 34077 28
27262 34076 34078 28
27263 34076 34079 28
27264 34076 34080 28
27265 34081 34082 28
27266 34081 34083 28
27267 34081 34084 28
27268 34081 34085 28
27269 34086 34087 28
27270 34086 34088 28
27271 34086 34089 28
27272 34086 34090 28
27273 34091 34092 28
27274 34091 34093 28
27275 34091 34094 28
27276 34091 34095 28
27277 34096 34097 28
27278 34096 34098 28
27279 34096 34099 28
27280 34096 34100 28
27281 34101 34102 28
27282 34101 34103 28
27283 34101 34104 28
27284 34101 34105 28
27285 34106 34107 28
27286 34106 34108 28
27287 34106 34109 28
27288 34106 34110 28
27289 34111 34112 28
27290 34111 34113 28
27291 34111 34114 28
27292 34111 34115 28
27293 34116 34117 28
27294 34116 34118 28
27295 34116 34119 28
27296 34116 34120 28
27297 34121 34122 28
27298 34121 34123 28
27299 34121 34124 28
27300 34121 34125 28
27301 34126 34127 28
27302 34126 34128 28
27303 34126 34129 28
27304 34126 34130 28
27305 34131 34132 28
27306 34131 34133 28
27307 34131 34134 28
27308 34131 34135 28
27309 34136 34137 28
27310 34136 34138 28
27311 34136 34139 28
27312 34136 34140 28
27313 34141 34142 28
27314 34141 34143 28
27315 34141 34144 28
27316 34141 34145 28
27317 34146 34147 28
27318 34146 34148 28
27319 34146 34149 28
27320 34146 34150 28
27321 34151 34152 28
27322 34151 34153 28
27323 34151 34154 28
27324 34151 34155 28
27325 34156 34157 28
27326 34156 34158 28
27327 34156 34159 28
27328 34156 34160 28
27329 34161 34162 28
27330 34161 34163 28
27331 34161 34164 28
27332 34161 34165 28
27333 34166 34167 28
27334 34166 34168 28
27335 34166 34169 28
27336 34166 34170 28
27337 34171 34172 28
27338 34171 34173 28
27339 34171 34174 28
27340 34171 34175 28
27341 34176 34177 28
27342 34176 34178 28
27343 34176 34179 28
27344 34176 34180 28
27345 34181 34182 28
27346 34181 34183 28
27347 34181 34184 28
27348 34181 34185 28
27349 34186 34187 28
27350 34186 34188 28
27351 34186 34189 28
27352 34186 34190 28
27353 34191 34192 28
27354 34191 34193 28
27355 34191 34194 28
27356 34191 34195 28
27357 34196 34197 28
27358 34196 34198 28
27359 34196 34199 28
27360 34196 34200 28
27361 34201 34202 28
27362 34201 34203 28
27363 34201 34204 28
27364 34201 34205 28
27365 34206 34207 28
27366 34206 34208 28
27367 34206 34209 28
27368 34206 34210 28
27369 34211 34212 28
27370 34211 34213 28
27371 34211 34214 28
27372 34211 34215 28
27373 34216 34217 28
27374 34216 34218 28
27375 34216 34219 28
27376 34216 34220 28
27377 34221 34222 28
27378 34221 34223 28
27379 34221 34224 28
27380 34221 34225 28
27381 34226 34227 28
27382 34226 34228 28
27383 34226 34229 28
27384 34226 34230 28
27385 34231 34232 28
27386 34231 34233 28
27387 34231 34234 28
27388 34231 34235 28
27389 34236 34237 28
27390 34236 34238 28
27391 34236 34239 28
27392 34236 34240 28
27393 34241 34242 28
27394 34241 34243 28
27395 34241 34244 28
27396 34241 34245 28
27397 34246 34247 28
27398 34246 34248 28
27399 34246 34249 28
27400 34246 34250 28
27401 34251 34252 28
27402 34251 34253 28
27403 34251 34254 28
27404 34251 34255 28
27405 34256 34257 28
27406 34256 34258 28
27407 34256 34259 28
27408 34256 34260 28
27409 34261 34262 28
27410 34261 34263 28
27411 34261 34264 28
27412 34261 34265 28
27413 34266 34267 28
27414 34266 34268 28
27415 34266 34269 28
27416 34266 34270 28
27417 34271 34272 28
27418 34271 34273 28
27419 34271 34274 28
27420 34271 34275 28
27421 34276 34277 28
27422 34276 34278 28
27423 34276 34279 28
27424 34276 34280 28
27425 34281 34282 28
27426 34281 34283 28
27427 34281 34284 28
27428 34281 34285 28
27429 34286 34287 28
27430 34286 34288 28
27431 34286 34289 28
27432 34286 34290 28
27433 34291 34292 28
27434 34291 34293 28
27435 34291 34294 28
27436 34291 34295 28
27437 34296 34297 28
27438 34296 34298 28
27439 34296 34299 28
27440 34296 34300 28
27441 34301 34302 28
27442 34301 34303 28
27443 34301 34304 28
27444 34301 34305 28
27445 34306 34307 28
27446 34306 34308 28
27447 34306 34309 28
27448 34306 34310 28
27449 34311 34312 28
27450 34311 34313 28
27451 34311 34314 28
27452 34311 34315 28
27453 34316 34317 28
27454 34316 34318 28
27455 34316 34319 28
27456 34316 34320 28
27457 34321 34322 28
27458 34321 34323 28
27459 34321 34324 28
27460 34321 34325 28
27461 34326 34327 28
27462 34326 34328 28
27463 34326 34329 28
27464 34326 34330 28
27465 34331 34332 28
27466 34331 34333 28
27467 34331 34334 28
27468 34331 34335 28
27469 34336 34337 28
27470 34336 34338 28
27471 34336 34339 28
27472 34336 34340 28
27473 34341 34342 28
27474 34341 34343 28
27475 34341 34344 28
27476 34341 34345 28
27477 34346 34347 28
27478 34346 34348 28
27479 34346 34349 28
27480 34346 34350 28
27481 34351 34352 28
27482 34351 34353 28
27483 34351 34354 28
27484 34351 34355 28
27485 34356 34357 28
27486 34356 34358 28
27487 34356 34359 28
27488 34356 34360 28
27489 34361 34362 28
27490 34361 34363 28
27491 34361 34364 28
27492 34361 34365 28
27493 34366 34367 28
27494 34366 34368 28
27495 34366 34369 28
27496 34366 34370 28
27497 34371 34372 28
27498 34371 34373 28
27499 34371 34374 28
27500 34371 34375 28
27501 34376 34377 28
27502 34376 34378 28
27503 34376 34379 28
27504 34376 34380 28
27505 34381 34382 28
27506 34381 34383 28
27507 34381 34384 28
27508 34381 34385 28
27509 34386 34387 28
27510 34386 34388 28
27511 34386 34389 28
27512 34386 34390 28
27513 34391 34392 28
27514 34391 34393 28
27515 34391 34394 28
27516 34391 34395 28
27517 34396 34397 28
27518 34396 34398 28
27519 34396 34399 28
27520 34396 34400 28
27521 34401 34402 28
27522 34401 34403 28
27523 34401 34404 28
27524 34401 34405 28
27525 34406 34407 28
27526 34406 34408 28
27527 34406 34409 28
27528 34406 34410 28
27529 34411 34412 28
27530 34411 34413 28
27531 34411 34414 28
27532 34411 34415 28
27533 34416 34417 28
27534 34416 34418 28
27535 34416 34419 28
27536 34416 34420 28
27537 34421 34422 28
27538 34421 34423 28
27539 34421 34424 28
27540 34421 34425 28
27541 34426 34427 28
27542 34426 34428 28
27543 34426 34429 28
27544 34426 34430 28
27545 34431 34432 28
27546 34431 34433 28
27547 34431 34434 28
27548 34431 34435 28
27549 34436 34437 28
27550 34436 34438 28
27551 34436 34439 28
27552 34436 34440 28
27553 34441 34442 28
27554 34441 34443 28
27555 34441 34444 28
27556 34441 34445 28
27557 34446 34447 28
27558 34446 34448 28
27559 34446 34449 28
27560 34446 34450 28
27561 34451 34452 28
27562 34451 34453 28
27563 34451 34454 28
27564 34451 34455 28
27565 34456 34457 28
27566 34456 34458 28
27567 34456 34459 28
27568 34456 34460 28
27569 34461 34462 28
27570 34461 34463 28
27571 34461 34464 28
27572 34461 34465 28
27573 34466 34467 28
27574 34466 34468 28
27575 34466 34469 28
27576 34466 34470 28
27577 34471 34472 28
27578 34471 34473 28
27579 34471 34474 28
27580 34471 34475 28
27581 34476 34477 28
27582 34476 34478 28
27583 34476 34479 28
27584 34476 34480 28
27585 34481 34482 28
27586 34481 34483 28
27587 34481 34484 28
27588 34481 34485 28
27589 34486 34487 28
27590 34486 34488 28
27591 34486 34489 28
27592 34486 34490 28
27593 34491 34492 28
27594 34491 34493 28
27595 34491 34494 28
27596 34491 34495 28
27597 34496 34497 28
27598 34496 34498 28
27599 34496 34499 28
27600 34496 34500 28
27601 34501 34502 28
27602 34501 34503 28
27603 34501 34504 28
27604 34501 34505 28
27605 34506 34507 28
27606 34506 34508 28
27607 34506 34509 28
27608 34506 34510 28
27609 34511 34512 28
27610 34511 34513 28
27611 34511 34514 28
27612 34511 34515 28
27613 34516 34517 28
27614 34516 34518 28
27615 34516 34519 28
27616 34516 34520 28
27617 34521 34522 28
27618 34521 34523 28
27619 34521 34524 28
27620 34521 34525 28
27621 34526 34527 28
27622 34526 34528 28
27623 34526 34529 28
27624 34526 34530 28
27625 34531 34532 28
27626 34531 34533 28
27627 34531 34534 28
27628 34531 34535 28
27629 34536 34537 28
27630 34536 34538 28
27631 34536 34539 28
27632 34536 34540 28
27633 34541 34542 28
27634 34541 34543 28
27635 34541 34544 28
27636 34541 34545 28
27637 34546 34547 28
27638 34546 34548 28
27639 34546 34549 28
27640 34546 34550 28
27641 34551 34552 28
27642 34551 34553 28
27643 34551 34554 28
27644 34551 34555 28
27645 34556 34557 28
27646 34556 34558 28
27647 34556 34559 28
27648 34556 34560 28
27649 34561 34562 28
27650 34561 34563 28
27651 34561 34564 28
27652 34561 34565 28
27653 34566 34567 28
27654 34566 34568 28
27655 34566 34569 28
27656 34566 34570 28
27657 34571 34572 28
27658 34571 34573 28
27659 34571 34574 28
27660 34571 34575 28
27661 34576 34577 28
27662 34576 34578 28
27663 34576 34579 28
27664 34576 34580 28
27665 34581 34582 28
27666 34581 34583 28
27667 34581 34584 28
27668 34581 34585 28
27669 34586 34587 28
27670 34586 34588 28
27671 34586 34589 28
27672 34586 34590 28
27673 34591 34592 28
27674 34591 34593 28
27675 34591 34594 28
27676 34591 34595 28
27677 34596 34597 28
27678 34596 34598 28
27679 34596 34599 28
27680 34596 34600 28
27681 34601 34602 28
27682 34601 34603 28
27683 34601 34604 28
27684 34601 34605 28
27685 34606 34607 28
27686 34606 34608 28
27687 34606 34609 28
27688 34606 34610 28
27689 34611 34612 28
27690 34611 34613 28
27691 34611 34614 28
27692 34611 34615 28
27693 34616 34617 28
27694 34616 34618 28
27695 34616 34619 28
27696 34616 34620 28
27697 34621 34622 28
27698 34621 34623 28
27699 34621 34624 28
27700 34621 34625 28
27701 34626 34627 28
27702 34626 34628 28
27703 34626 34629 28
27704 34626 34630 28
27705 34631 34632 28
27706 34631 34633 28
27707 34631 34634 28
27708 34631 34635 28
27709 34636 34637 28
27710 34636 34638 28
27711 34636 34639 28
27712 34636 34640 28
27713 34641 34642 28
27714 34641 34643 28
27715 34641 34644 28
27716 34641 34645 28
27717 34646 34647 28
27718 34646 34648 28
27719 34646 34649 28
27720 34646 34650 28
27721 34651 34652 28
27722 34651 34653 28
27723 34651 34654 28
27724 34651 34655 28
27725 34656 34657 28
27726 34656 34658 28
27727 34656 34659 28
27728 34656 34660 28
27729 34661 34662 28
27730 34661 34663 28
27731 34661 34664 28
27732 34661 34665 28
27733 34666 34667 28
27734 34666 34668 28
27735 34666 34669 28
27736 34666 34670 28
27737 34671 34672 28
27738 34671 34673 28
27739 34671 34674 28
27740 34671 34675 28
27741 34676 34677 28
27742 34676 34678 28
27743 34676 34679 28
27744 34676 34680 28
27745 34681 34682 28
27746 34681 34683 28
27747 34681 34684 28
27748 34681 34685 28
27749 34686 34687 28
27750 34686 34688 28
27751 34686 34689 28
27752 34686 34690 28
27753 34691 34692 28
27754 34691 34693 28
27755 34691 34694 28
27756 34691 34695 28
27757 34696 34697 28
27758 34696 34698 28
27759 34696 34699 28
27760 34696 34700 28
27761 34701 34702 28
27762 34701 34703 28
27763 34701 34704 28
27764 34701 34705 28
27765 34706 34707 28
27766 34706 34708 28
27767 34706 34709 28
27768 34706 34710 28
27769 34711 34712 28
27770 34711 34713 28
27771 34711 34714 28
27772 34711 34715 28
27773 34716 34717 28
27774 34716 34718 28
27775 34716 34719 28
27776 34716 34720 28
27777 34721 34722 28
27778 34721 34723 28
27779 34721 34724 28
27780 34721 34725 28
27781 34726 34727 28
27782 34726 34728 28
27783 34726 34729 28
27784 34726 34730 28
27785 34731 34732 28
27786 34731 34733 28
27787 34731 34734 28
27788 34731 34735 28
27789 34736 34737 28
27790 34736 34738 28
27791 34736 34739 28
27792 34736 34740 28
27793 34741 34742 28
27794 34741 34743 28
27795 34741 34744 28
27796 34741 34745 28
27797 34746 34747 28
27798 34746 34748 28
27799 34746 34749 28
27800 34746 34750 28
27801 34751 34752 28
27802 34751 34753 28
27803 34751 34754 28
27804 34751 34755 28
27805 34756 34757 28
27806 34756 34758 28
27807 34756 34759 28
27808 34756 34760 28
27809 34761 34762 28
27810 34761 34763 28
27811 34761 34764 28
27812 34761 34765 28
27813 34766 34767 28
27814 34766 34768 28
27815 34766 34769 28
27816 34766 34770 28
27817 34771 34772 28
27818 34771 34773 28
27819 34771 34774 28
27820 34771 34775 28
27821 34776 34777 28
27822 34776 34778 28
27823 34776 34779 28
27824 34776 34780 28
27825 34781 34782 28
27826 34781 34783 28
27827 34781 34784 28
27828 34781 34785 28
27829 34786 34787 28
27830 34786 34788 28
27831 34786 34789 28
27832 34786 34790 28
27833 34791 34792 28
27834 34791 34793 28
27835 34791 34794 28
27836 34791 34795 28
27837 34796 34797 28
27838 34796 34798 28
27839 34796 34799 28
27840 34796 34800 28
27841 34801 34802 28
27842 34801 34803 28
27843 34801 34804 28
27844 34801 34805 28
27845 34806 34807 28
27846 34806 34808 28
27847 34806 34809 28
27848 34806 34810 28
27849 34811 34812 28
27850 34811 34813 28
27851 34811 34814 28
27852 34811 34815 28
27853 34816 34817 28
27854 34816 34818 28
27855 34816 34819 28
27856 34816 34820 28
27857 34821 34822 28
27858 34821 34823 28
27859 34821 34824 28
27860 34821 34825 28
27861 34826 34827 28
27862 34826 34828 28
27863 34826 34829 28
27864 34826 34830 28
27865 34831 34832 28
27866 34831 34833 28
27867 34831 34834 28
27868 34831 34835 28
27869 34836 34837 28
27870 34836 34838 28
27871 34836 34839 28
27872 34836 34840 28
27873 34841 34842 28
27874 34841 34843 28
27875 34841 34844 28
27876 34841 34845 28
27877 34846 34847 28
27878 34846 34848 28
27879 34846 34849 28
27880 34846 34850 28
27881 34851 34852 28
27882 34851 34853 28
27883 34851 34854 28
27884 34851 34855 28
27885 34856 34857 28
27886 34856 34858 28
27887 34856 34859 28
27888 34856 34860 28
27889 34861 34862 28
27890 34861 34863 28
27891 34861 34864 28
27892 34861 34865 28
27893 34866 34867 28
27894 34866 34868 28
27895 34866 34869 28
27896 34866 34870 28
27897 34871 34872 28
27898 34871 34873 28
27899 34871 34874 28
27900 34871 34875 28
27901 34876 34877 28
27902 34876 34878 28
27903 34876 34879 28
27904 34876 34880 28
27905 34881 34882 28
27906 34881 34883 28
27907 34881 34884 28
27908 34881 34885 28
27909 34886 34887 28
27910 34886 34888 28
27911 34886 34889 28
27912 34886 34890 28
27913 34891 34892 28
27914 34891 34893 28
27915 34891 34894 28
27916 34891 34895 28
27917 34896 34897 28
27918 34896 34898 28
27919 34896 34899 28
27920 34896 34900 28
27921 34901 34902 28
27922 34901 34903 28
27923 34901 34904 28
27924 34901 34905 28
27925 34906 34907 28
27926 34906 34908 28
27927 34906 34909 28
27928 34906 34910 28
27929 34911 34912 28
27930 34911 34913 28
27931 34911 34914 28
27932 34911 34915 28
27933 34916 34917 28
27934 34916 34918 28
27935 34916 34919 28
27936 34916 34920 28
27937 34921 34922 28
27938 34921 34923 28
27939 34921 34924 28
27940 34921 34925 28
27941 34926 34927 28
27942 34926 34928 28
27943 34926 34929 28
27944 34926 34930 28
27945 34931 34932 28
27946 34931 34933 28
27947 34931 34934 28
27948 34931 34935 28
27949 34936 34937 28
27950 34936 34938 28
27951 34936 34939 28
27952 34936 34940 28
27953 34941 34942 28
27954 34941 34943 28
27955 34941 34944 28
27956 34941 34945 28
27957 34946 34947 28
27958 34946 34948 28
27959 34946 34949 28
27960 34946 34950 28
27961 34951 34952 28
27962 34951 34953 28
27963 34951 34954 28
27964 34951 34955 28
27965 34956 34957 28
27966 34956 34958 28
27967 34956 34959 28
27968 34956 34960 28
27969 34961 34962 28
27970 34961 34963 28
27971 34961 34964 28
27972 34961 34965 28
27973 34966 34967 28
27974 34966 34968 28
27975 34966 34969 28
27976 34966 34970 28
27977 34971 34972 28
27978 34971 34973 28
27979 34971 34974 28
27980 34971 34975 28
27981 34976 34977 28
27982 34976 34978 28
27983 34976 34979 28
27984 34976 34980 28
27985 34981 34982 28
27986 34981 34983 28
27987 34981 34984 28
27988 34981 34985 28
27989 34986 34987 28
27990 34986 34988 28
27991 34986 34989 28
27992 34986 34990 28
27993 34991 34992 28
27994 34991 34993 28
27995 34991 34994 28
27996 34991 34995 28
27997 34996 34997 28
27998 34996 34998 28
27999 34996 34999 28
28000 34996 35000 28
28001 35001 35002 28
28002 35001 35003 28
28003 35001 35004 28
28004 35001 35005 28
28005 35006 35007 28
28006 35006 35008 28
28007 35006 35009 28
28008 35006 35010 28
28009 35011 35012 28
28010 35011 35013 28
28011 35011 35014 28
28012 35011 35015 28
28013 35016 35017 28
28014 35016 35018 28
28015 35016 35019 28
28016 35016 35020 28
28017 35021 35022 28
28018 35021 35023 28
28019 35021 35024 28
28020 35021 35025 28
28021 35026 35027 28
28022 35026 35028 28
28023 35026 35029 28
28024 35026 35030 28
28025 35031 35032 28
28026 35031 35033 28
28027 35031 35034 28
28028 35031 35035 28
28029 35036 35037 28
28030 35036 35038 28
28031 35036 35039 28
28032 35036 35040 28
28033 35041 35042 28
28034 35041 35043 28
28035 35041 35044 28
28036 35041 35045 28
28037 35046 35047 28
28038 35046 35048 28
28039 35046 35049 28
28040 35046 35050 28
28041 35051 35052 28
28042 35051 35053 28
28043 35051 35054 28
28044 35051 35055 28
28045 35056 35057 28
28046 35056 35058 28
28047 35056 35059 28
28048 35056 35060 28
28049 35061 35062 28
28050 35061 35063 28
28051 35061 35064 28
28052 35061 35065 28
28053 35066 35067 28
28054 35066 35068 28
28055 35066 35069 28
28056 35066 35070 28
28057 35071 35072 28
28058 35071 35073 28
28059 35071 35074 28
28060 35071 35075 28
28061 35076 35077 28
28062 35076 35078 28
28063 35076 35079 28
28064 35076 35080 28
28065 35081 35082 28
28066 35081 35083 28
28067 35081 35084 28
28068 35081 35085 28
28069 35086 35087 28
28070 35086 35088 28
28071 35086 35089 28
28072 35086 35090 28
28073 35091 35092 28
28074 35091 35093 28
28075 35091 35094 28
28076 35091 35095 28
28077 35096 35097 28
28078 35096 35098 28
28079 35096 35099 28
28080 35096 35100 28
28081 35101 35102 28
28082 35101 35103 28
28083 35101 35104 28
28084 35101 35105 28
28085 35106 35107 28
28086 35106 35108 28
28087 35106 35109 28
28088 35106 35110 28
28089 35111 35112 28
28090 35111 35113 28
28091 35111 35114 28
28092 35111 35115 28
28093 35116 35117 28
28094 35116 35118 28
28095 35116 35119 28
28096 35116 35120 28
28097 35121 35122 28
28098 35121 35123 28
28099 35121 35124 28
28100 35121 35125 28
28101 35126 35127 28
28102 35126 35128 28
28103 35126 35129 28
28104 35126 35130 28
28105 35131 35132 28
28106 35131 35133 28
28107 35131 35134 28
28108 35131 35135 28
28109 35136 35137 28
28110 35136 35138 28
28111 35136 35139 28
28112 35136 35140 28
28113 35141 35142 28
28114 35141 35143 28
28115 35141 35144 28
28116 35141 35145 28
28117 35146 35147 28
28118 35146 35148 28
28119 35146 35149 28
28120 35146 35150 28
28121 35151 35152 28
28122 35151 35153 28
28123 35151 35154 28
28124 35151 35155 28
28125 35156 35157 28
28126 35156 35158 28
28127 35156 35159 28
28128 35156 35160 28
28129 35161 35162 28
28130 35161 35163 28
28131 35161 35164 28
28132 35161 35165 28
28133 35166 35167 28
28134 35166 35168 28
28135 35166 35169 28
28136 35166 35170 28
28137 35171 35172 28
28138 35171 35173 28
28139 35171 35174 28
28140 35171 35175 28
28141 35176 35177 28
28142 35176 35178 28
28143 35176 35179 28
28144 35176 35180 28
28145 35181 35182 28
28146 35181 35183 28
28147 35181 35184 28
28148 35181 35185 28
28149 35186 35187 28
28150 35186 35188 28
28151 35186 35189 28
28152 35186 35190 28
28153 35191 35192 28
28154 35191 35193 28
28155 35191 35194 28
28156 35191 35195 28
28157 35196 35197 28
28158 35196 35198 28
28159 35196 35199 28
28160 35196 35200 28
28161 35201 35202 28
28162 35201 35203 28
28163 35201 35204 28
28164 35201 35205 28
28165 35206 35207 28
28166 35206 35208 28
28167 35206 35209 28
28168 35206 35210 28
28169 35211 35212 28
28170 35211 35213 28
28171 35211 35214 28
28172 35211 35215 28
28173 35216 35217 28
28174 35216 35218 28
28175 35216 35219 28
28176 35216 35220 28
28177 35221 35222 28
28178 35221 35223 28
28179 35221 35224 28
28180 35221 35225 28
28181 35226 35227 28
28182 35226 35228 28
28183 35226 35229 28
28184 35226 35230 28
28185 35231 35232 28
28186 35231 35233 28
28187 35231 35234 28
28188 35231 35235 28
28189 35236 35237 28
28190 35236 35238 28
28191 35236 35239 28
28192 35236 35240 28
28193 35241 35242 28
28194 35241 35243 28
28195 35241 35244 28
28196 35241 35245 28
28197 35246 35247 28
28198 35246 35248 28
28199 35246 35249 28
28200 35246 35250 28
28201 35251 35252 28
28202 35251 35253 28
28203 35251 35254 28
28204 35251 35255 28
28205 35256 35257 28
28206 35256 35258 28
28207 35256 35259 28
28208 35256 35260 28
28209 35261 35262 28
28210 35261 35263 28
28211 35261 35264 28
28212 35261 35265 28
28213 35266 35267 28
28214 35266 35268 28
28215 35266 35269 28
28216 35266 35270 28
28217 35271 35272 28
28218 35271 35273 28
28219 35271 35274 28
28220 35271 35275 28
28221 35276 35277 28
28222 35276 35278 28
28223 35276 35279 28
28224 35276 35280 28
28225 35281 35282 28
28226 35281 35283 28
28227 35281 35284 28
28228 35281 35285 28
28229 35286 35287 28
28230 35286 35288 28
28231 35286 35289 28
28232 35286 35290 28
28233 35291 35292 28
28234 35291 35293 28
28235 35291 35294 28
28236 35291 35295 28
28237 35296 35297 28
28238 35296 35298 28
28239 35296 35299 28
28240 35296 35300 28
28241 35301 35302 28
28242 35301 35303 28
28243 35301 35304 28
28244 35301 35305 28
28245 35306 35307 28
28246 35306 35308 28
28247 35306 35309 28
28248 35306 35310 28
28249 35311 35312 28
28250 35311 35313 28
28251 35311 35314 28
28252 35311 35315 28
28253 35316 35317 28
28254 35316 35318 28
28255 35316 35319 28
28256 35316 35320 28
28257 35321 35322 28
28258 35321 35323 28
28259 35321 35324 28
28260 35321 35325 28
28261 35326 35327 28
28262 35326 35328 28
28263 35326 35329 28
28264 35326 35330 28
28265 35331 35332 28
28266 35331 35333 28
28267 35331 35334 28
28268 35331 35335 28
28269 35336 35337 28
28270 35336 35338 28
28271 35336 35339 28
28272 35336 35340 28
28273 35341 35342 28
28274 35341 35343 28
28275 35341 35344 28
28276 35341 35345 28
28277 35346 35347 28
28278 35346 35348 28
28279 35346 35349 28
28280 35346 35350 28
28281 35351 35352 28
28282 35351 35353 28
28283 35351 35354 28
28284 35351 35355 28
28285 35356 35357 28
28286 35356 35358 28
28287 35356 35359 28
28288 35356 35360 28
28289 35361 35362 28
28290 35361 35363 28
28291 35361 35364 28
28292 35361 35365 28
28293 35366 35367 28
28294 35366 35368 28
28295 35366 35369 28
28296 35366 35370 28
28297 35371 35372 28
28298 35371 35373 28
28299 35371 35374 28
28300 35371 35375 28
28301 35376 35377 28
28302 35376 35378 28
28303 35376 35379 28
28304 35376 35380 28
28305 35381 35382 28
28306 35381 35383 28
28307 35381 35384 28
28308 35381 35385 28
28309 35386 35387 28
28310 35386 35388 28
28311 35386 35389 28
28312 35386 35390 28
28313 35391 35392 28
28314 35391 35393 28
28315 35391 35394 28
28316 35391 35395 28
28317 35396 35397 28
28318 35396 35398 28
28319 35396 35399 28
28320 35396 35400 28
28321 35401 35402 28
28322 35401 35403 28
28323 35401 35404 28
28324 35401 35405 28
28325 35406 35407 28
28326 35406 35408 28
28327 35406 35409 28
28328 35406 35410 28
28329 35411 35412 28
28330 35411 35413 28
28331 35411 35414 28
28332 35411 35415 28
28333 35416 35417 28
28334 35416 35418 28
28335 35416 35419 28
28336 35416 35420 28
28337 35421 35422 28
28338 35421 35423 28
28339 35421 35424 28
28340 35421 35425 28
28341 35426 35427 28
28342 35426 35428 28
28343 35426 35429 28
28344 35426 35430 28
28345 35431 35432 28
28346 35431 35433 28
28347 35431 35434 28
28348 35431 35435 28
28349 35436 35437 28
28350 35436 35438 28
28351 35436 35439 28
28352 35436 35440 28
28353 35441 35442 28
28354 35441 35443 28
28355 35441 35444 28
28356 35441 35445 28
28357 35446 35447 28
28358 35446 35448 28
28359 35446 35449 28
28360 35446 35450 28
28361 35451 35452 28
28362 35451 35453 28
28363 35451 35454 28
28364 35451 35455 28
28365 35456 35457 28
28366 35456 35458 28
28367 35456 35459 28
28368 35456 35460 28
28369 35461 35462 28
28370 35461 35463 28
28371 35461 35464 28
28372 35461 35465 28
28373 35466 35467 28
28374 35466 35468 28
28375 35466 35469 28
28376 35466 35470 28
28377 35471 35472 28
28378 35471 35473 28
28379 35471 35474 28
28380 35471 35475 28
28381 35476 35477 28
28382 35476 35478 28
28383 35476 35479 28
28384 35476 35480 28
28385 35481 35482 28
28386 35481 35483 28
28387 35481 35484 28
28388 35481 35485 28
28389 35486 35487 28
28390 35486 35488 28
28391 35486 35489 28
28392 35486 35490 28
28393 35491 35492 28
28394 35491 35493 28
28395 35491 35494 28
28396 35491 35495 28
28397 35496 35497 28
28398 35496 35498 28
28399 35496 35499 28
28400 35496 35500 28
28401 35501 35502 28
28402 35501 35503 28
28403 35501 35504 28
28404 35501 35505 28
28405 35506 35507 28
28406 35506 35508 28
28407 35506 35509 28
28408 35506 35510 28
28409 35511 35512 28
28410 35511 35513 28
28411 35511 35514 28
28412 35511 35515 28
28413 35516 35517 28
28414 35516 35518 28
28415 35516 35519 28
28416 35516 35520 28
28417 35521 35522 28
28418 35521 35523 28
28419 35521 35524 28
28420 35521 35525 28
28421 35526 35527 28
28422 35526 35528 28
28423 35526 35529 28
28424 35526 35530 28
28425 35531 35532 28
28426 35531 35533 28
28427 35531 35534 28
28428 35531 35535 28
28429 35536 35537 28
28430 35536 35538 28
28431 35536 35539 28
28432 35536 35540 28
28433 35541 35542 28
28434 35541 35543 28
28435 35541 35544 28
28436 35541 35545 28
28437 35546 35547 28
28438 35546 35548 28
28439 35546 35549 28
28440 35546 35550 28
28441 35551 35552 28
28442 35551 35553 28
28443 35551 35554 28
28444 35551 35555 28
28445 35556 35557 28
28446 35556 35558 28
28447 35556 35559 28
28448 35556 35560 28
28449 35561 35562 28
28450 35561 35563 28
28451 35561 35564 28
28452 35561 35565 28
28453 35566 35567 28
28454 35566 35568 28
28455 35566 35569 28
28456 35566 35570 28
28457 35571 35572 28
28458 35571 35573 28
28459 35571 35574 28
28460 35571 35575 28
28461 35576 35577 28
28462 35576 35578 28
28463 35576 35579 28
28464 35576 35580 28
28465 35581 35582 28
28466 35581 35583 28
28467 35581 35584 28
28468 35581 35585 28
28469 35586 35587 28
28470 35586 35588 28
28471 35586 35589 28
28472 35586 35590 28
28473 35591 35592 28
28474 35591 35593 28
28475 35591 35594 28
28476 35591 35595 28
28477 35596 35597 28
28478 35596 35598 28
28479 35596 35599 28
28480 35596 35600 28
28481 35601 35602 28
28482 35601 35603 28
28483 35601 35604 28
28484 35601 35605 28
28485 35606 35607 28
28486 35606 35608 28
28487 35606 35609 28
28488 35606 35610 28
28489 35611 35612 28
28490 35611 35613 28
28491 35611 35614 28
28492 35611 35615 28
28493 35616 35617 28
28494 35616 35618 28
28495 35616 35619 28
28496 35616 35620 28
28497 35621 35622 28
28498 35621 35623 28
28499 35621 35624 28
28500 35621 35625 28
28501 35626 35627 28
28502 35626 35628 28
28503 35626 35629 28
28504 35626 35630 28
28505 35631 35632 28
28506 35631 35633 28
28507 35631 35634 28
28508 35631 35635 28
28509 35636 35637 28
28510 35636 35638 28
28511 35636 35639 28
28512 35636 35640 28
28513 35641 35642 28
28514 35641 35643 28
28515 35641 35644 28
28516 35641 35645 28
28517 35646 35647 28
28518 35646 35648 28
28519 35646 35649 28
28520 35646 35650 28
28521 35651 35652 28
28522 35651 35653 28
28523 35651 35654 28
28524 35651 35655 28
28525 35656 35657 28
28526 35656 35658 28
28527 35656 35659 28
28528 35656 35660 28
28529 35661 35662 28
28530 35661 35663 28
28531 35661 35664 28
28532 35661 35665 28
28533 35666 35667 28
28534 35666 35668 28
28535 35666 35669 28
28536 35666 35670 28
28537 35671 35672 28
28538 35671 35673 28
28539 35671 35674 28
28540 35671 35675 28
28541 35676 35677 28
28542 35676 35678 28
28543 35676 35679 28
28544 35676 35680 28
28545 35681 35682 28
28546 35681 35683 28
28547 35681 35684 28
28548 35681 35685 28
28549 35686 35687 28
28550 35686 35688 28
28551 35686 35689 28
28552 35686 35690 28
28553 35691 35692 28
28554 35691 35693 28
28555 35691 35694 28
28556 35691 35695 28
28557 35696 35697 28
28558 35696 35698 28
28559 35696 35699 28
28560 35696 35700 28
28561 35701 35702 28
28562 35701 35703 28
28563 35701 35704 28
28564 35701 35705 28
28565 35706 35707 28
28566 35706 35708 28
28567 35706 35709 28
28568 35706 35710 28
28569 35711 35712 28
28570 35711 35713 28
28571 35711 35714 28
28572 35711 35715 28
28573 35716 35717 28
28574 35716 35718 28
28575 35716 35719 28
28576 35716 35720 28
28577 35721 35722 28
28578 35721 35723 28
28579 35721 35724 28
28580 35721 35725 28
28581 35726 35727 28
28582 35726 35728 28
28583 35726 35729 28
28584 35726 35730 28
28585 35731 35732 28
28586 35731 35733 28
28587 35731 35734 28
28588 35731 35735 28
28589 35736 35737 28
28590 35736 35738 28
28591 35736 35739 28
28592 35736 35740 28
28593 35741 35742 28
28594 35741 35743 28
28595 35741 35744 28
28596 35741 35745 28
28597 35746 35747 28
28598 35746 35748 28
28599 35746 35749 28
28600 35746 35750 28
28601 35751 35752 28
28602 35751 35753 28
28603 35751 35754 28
28604 35751 35755 28
28605 35756 35757 28
28606 35756 35758 28
28607 35756 35759 28
28608 35756 35760 28
28609 35761 35762 28
28610 35761 35763 28
28611 35761 35764 28
28612 35761 35765 28
28613 35766 35767 28
28614 35766 35768 28
28615 35766 35769 28
28616 35766 35770 28
28617 35771 35772 28
28618 35771 35773 28
28619 35771 35774 28
28620 35771 35775 28
28621 35776 35777 28
28622 35776 35778 28
28623 35776 35779 28
28624 35776 35780 28
28625 35781 35782 28
28626 35781 35783 28
28627 35781 35784 28
28628 35781 35785 28
28629 35786 35787 28
28630 35786 35788 28
28631 35786 35789 28
28632 35786 35790 28
28633 35791 35792 28
28634 35791 35793 28
28635 35791 35794 28
28636 35791 35795 28
28637 35796 35797 28
28638 35796 35798 28
28639 35796 35799 28
28640 35796 35800 28
28641 35801 35802 28
28642 35801 35803 28
28643 35801 35804 28
28644 35801 35805 28
28645 35806 35807 28
28646 35806 35808 28
28647 35806 35809 28
28648 35806 35810 28
28649 35811 35812 28
28650 35811 35813 28
28651 35811 35814 28
28652 35811 35815 28
28653 35816 35817 28
28654 35816 35818 28
28655 35816 35819 28
28656 35816 35820 28
28657 35821 35822 28
28658 35821 35823 28
28659 35821 35824 28
28660 35821 35825 28
28661 35826 35827 28
28662 35826 35828 28
28663 35826 35829 28
28664 35826 35830 28
28665 35831 35832 28
28666 35831 35833 28
28667 35831 35834 28
28668 35831 35835 28
28669 35836 35837 28
28670 35836 35838 28
28671 35836 35839 28
28672 35836 35840 28
28673 35841 35842 28
28674 35841 35843 28
28675 35841 35844 28
28676 35841 35845 28
28677 35846 35847 28
28678 35846 35848 28
28679 35846 35849 28
28680 35846 35850 28
28681 35851 35852 28
28682 35851 35853 28
28683 35851 35854 28
28684 35851 35855 28
28685 35856 35857 28
28686 35856 35858 28
28687 35856 35859 28
28688 35856 35860 28
28689 35861 35862 28
28690 35861 35863 28
28691 35861 35864 28
28692 35861 35865 28
28693 35866 35867 28
28694 35866 35868 28
28695 35866 35869 28
28696 35866 35870 28
28697 35871 35872 28
28698 35871 35873 28
28699 35871 35874 28
28700 35871 35875 28
28701 35876 35877 28
28702 35876 35878 28
28703 35876 35879 28
28704 35876 35880 28
28705 35881 35882 28
28706 35881 35883 28
28707 35881 35884 28
28708 35881 35885 28
28709 35886 35887 28
28710 35886 35888 28
28711 35886 35889 28
28712 35886 35890 28
28713 35891 35892 28
28714 35891 35893 28
28715 35891 35894 28
28716 35891 35895 28
28717 35896 35897 28
28718 35896 35898 28
28719 35896 35899 28
28720 35896 35900 28
28721 35901 35902 28
28722 35901 35903 28
28723 35901 35904 28
28724 35901 35905 28
28725 35906 35907 28
28726 35906 35908 28
28727 35906 35909 28
28728 35906 35910 28
28729 35911 35912 28
28730 35911 35913 28
28731 35911 35914 28
28732 35911 35915 28
28733 35916 35917 28
28734 35916 35918 28
28735 35916 35919 28
28736 35916 35920 28
28737 35921 35922 28
28738 35921 35923 28
28739 35921 35924 28
28740 35921 35925 28
28741 35926 35927 28
28742 35926 35928 28
28743 35926 35929 28
28744 35926 35930 28
28745 35931 35932 28
28746 35931 35933 28
28747 35931 35934 28
28748 35931 35935 28
28749 35936 35937 28
28750 35936 35938 28
28751 35936 35939 28
28752 35936 35940 28
28753 35941 35942 28
28754 35941 35943 28
28755 35941 35944 28
28756 35941 35945 28
28757 35946 35947 28
28758 35946 35948 28
28759 35946 35949 28
28760 35946 35950 28
28761 35951 35952 28
28762 35951 35953 28
28763 35951 35954 28
28764 35951 35955 28
28765 35956 35957 28
28766 35956 35958 28
28767 35956 35959 28
28768 35956 35960 28
28769 35961 35962 28
28770 35961 35963 28
28771 35961 35964 28
28772 35961 35965 28
28773 35966 35967 28
28774 35966 35968 28
28775 35966 35969 28
28776 35966 35970 28
28777 35971 35972 28
28778 35971 35973 28
28779 35971 35974 28
28780 35971 35975 28
28781 35976 35977 28
28782 35976 35978 28
28783 35976 35979 28
28784 35976 35980 28
28785 35981 35982 28
28786 35981 35983 28
28787 35981 35984 28
28788 35981 35985 28
28789 35986 35987 28
28790 35986 35988 28
28791 35986 35989 28
28792 35986 35990 28
28793 35991 35992 28
28794 35991 35993 28
28795 35991 35994 28
28796 35991 35995 28
28797 35996 35997 28
28798 35996 35998 28
28799 35996 35999 28
28800 35996 36000 28
28801 36001 36002 28
28802 36001 36003 28
28803 36001 36004 28
28804 36001 36005 28
28805 36006 36007 28
28806 36006 36008 28
28807 36006 36009 28
28808 36006 36010 28
28809 36011 36012 28
28810 36011 36013 28
28811 36011 36014 28
28812 36011 36015 28
28813 36016 36017 28
28814 36016 36018 28
28815 36016 36019 28
28816 36016 36020 28
28817 36021 36022 28
28818 36021 36023 28
28819 36021 36024 28
28820 36021 36025 28
28821 36026 36027 28
28822 36026 36028 28
28823 36026 36029 28
28824 36026 36030 28
28825 36031 36032 28
28826 36031 36033 28
28827 36031 36034 28
28828 36031 36035 28
28829 36036 36037 28
28830 36036 36038 28
28831 36036 36039 28
28832 36036 36040 28
28833 36041 36042 28
28834 36041 36043 28
28835 36041 36044 28
28836 36041 36045 28
28837 36046 36047 28
28838 36046 36048 28
28839 36046 36049 28
28840 36046 36050 28
28841 36051 36052 28
28842 36051 36053 28
28843 36051 36054 28
28844 36051 36055 28
28845 36056 36057 28
28846 36056 36058 28
28847 36056 36059 28
28848 36056 36060 28
28849 36061 36062 28
28850 36061 36063 28
28851 36061 36064 28
28852 36061 36065 28
28853 36066 36067 28
28854 36066 36068 28
28855 36066 36069 28
28856 36066 36070 28
28857 36071 36072 28
28858 36071 36073 28
28859 36071 36074 28
28860 36071 36075 28
28861 36076 36077 28
28862 36076 36078 28
28863 36076 36079 28
28864 36076 36080 28
28865 36081 36082 28
28866 36081 36083 28
28867 36081 36084 28
28868 36081 36085 28
28869 36086 36087 28
28870 36086 36088 28
28871 36086 36089 28
28872 36086 36090 28
28873 36091 36092 28
28874 36091 36093 28
28875 36091 36094 28
28876 36091 36095 28
28877 36096 36097 28
28878 36096 36098 28
28879 36096 36099 28
28880 36096 36100 28
28881 36101 36102 28
28882 36101 36103 28
28883 36101 36104 28
28884 36101 36105 28
28885 36106 36107 28
28886 36106 36108 28
28887 36106 36109 28
28888 36106 36110 28
28889 36111 36112 28
28890 36111 36113 28
28891 36111 36114 28
28892 36111 36115 28
28893 36116 36117 28
28894 36116 36118 28
28895 36116 36119 28
28896 36116 36120 28
28897 36121 36122 28
28898 36121 36123 28
28899 36121 36124 28
28900 36121 36125 28
28901 36126 36127 28
28902 36126 36128 28
28903 36126 36129 28
28904 36126 36130 28
28905 36131 36132 28
28906 36131 36133 28
28907 36131 36134 28
28908 36131 36135 28
28909 36136 36137 28
28910 36136 36138 28
28911 36136 36139 28
28912 36136 36140 28
28913 36141 36142 28
28914 36141 36143 28
28915 36141 36144 28
28916 36141 36145 28
28917 36146 36147 28
28918 36146 36148 28
28919 36146 36149 28
28920 36146 36150 28
28921 36151 36152 28
28922 36151 36153 28
28923 36151 36154 28
28924 36151 36155 28
28925 36156 36157 28
28926 36156 36158 28
28927 36156 36159 28
28928 36156 36160 28
28929 36161 36162 28
28930 36161 36163 28
28931 36161 36164 28
28932 36161 36165 28
28933 36166 36167 28
28934 36166 36168 28
28935 36166 36169 28
28936 36166 36170 28
28937 36171 36172 28
28938 36171 36173 28
28939 36171 36174 28
28940 36171 36175 28
28941 36176 36177 28
28942 36176 36178 28
28943 36176 36179 28
28944 36176 36180 28
28945 36181 36182 28
28946 36181 36183 28
28947 36181 36184 28
28948 36181 36185 28
28949 36186 36187 28
28950 36186 36188 28
28951 36186 36189 28
28952 36186 36190 28
28953 36191 36192 28
28954 36191 36193 28
28955 36191 36194 28
28956 36191 36195 28
28957 36196 36197 28
28958 36196 36198 28
28959 36196 36199 28
28960 36196 36200 28
28961 36201 36202 28
28962 36201 36203 28
28963 36201 36204 28
28964 36201 36205 28
28965 36206 36207 28
28966 36206 36208 28
28967 36206 36209 28
28968 36206 36210 28
28969 36211 36212 28
28970 36211 36213 28
28971 36211 36214 28
28972 36211 36215 28
28973 36216 36217 28
28974 36216 36218 28
28975 36216 36219 28
28976 36216 36220 28
28977 36221 36222 28
28978 36221 36223 28
28979 36221 36224 28
28980 36221 36225 28
28981 36226 36227 28
28982 36226 36228 28
28983 36226 36229 28
28984 36226 36230 28
28985 36231 36232 28
28986 36231 36233 28
28987 36231 36234 28
28988 36231 36235 28
28989 36236 36237 28
28990 36236 36238 28
28991 36236 36239 28
28992 36236 36240 28
28993 36241 36242 28
28994 36241 36243 28
28995 36241 36244 28
28996 36241 36245 28
28997 36246 36247 28
28998 36246 36248 28
28999 36246 36249 28
29000 36246 36250 28
29001 36251 36252 28
29002 36251 36253 28
29003 36251 36254 28
29004 36251 36255 28
29005 36256 36257 28
29006 36256 36258 28
29007 36256 36259 28
29008 36256 36260 28
29009 36261 36262 28
29010 36261 36263 28
29011 36261 36264 28
29012 36261 36265 28
29013 36266 36267 28
29014 36266 36268 28
29015 36266 36269 28
29016 36266 36270 28
29017 36271 36272 28
29018 36271 36273 28
29019 36271 36274 28
29020 36271 36275 28
29021 36276 36277 28
29022 36276 36278 28
29023 36276 36279 28
29024 36276 36280 28
29025 36281 36282 28
29026 36281 36283 28
29027 36281 36284 28
29028 36281 36285 28
29029 36286 36287 28
29030 36286 36288 28
29031 36286 36289 28
29032 36286 36290 28
29033 36291 36292 28
29034 36291 36293 28
29035 36291 36294 28
29036 36291 36295 28
29037 36296 36297 28
29038 36296 36298 28
29039 36296 36299 28
29040 36296 36300 28
29041 36301 36302 28
29042 36301 36303 28
29043 36301 36304 28
29044 36301 36305 28
29045 36306 36307 28
29046 36306 36308 28
29047 36306 36309 28
29048 36306 36310 28
29049 36311 36312 28
29050 36311 36313 28
29051 36311 36314 28
29052 36311 36315 28
29053 36316 36317 28
29054 36316 36318 28
29055 36316 36319 28
29056 36316 36320 28
29057 36321 36322 28
29058 36321 36323 28
29059 36321 36324 28
29060 36321 36325 28
29061 36326 36327 28
29062 36326 36328 28
29063 36326 36329 28
29064 36326 36330 28
29065 36331 36332 28
29066 36331 36333 28
29067 36331 36334 28
29068 36331 36335 28
29069 36336 36337 28
29070 36336 36338 28
29071 36336 36339 28
29072 36336 36340 28
29073 36341 36342 28
29074 36341 36343 28
29075 36341 36344 28
29076 36341 36345 28
29077 36346 36347 28
29078 36346 36348 28
29079 36346 36349 28
29080 36346 36350 28
29081 36351 36352 28
29082 36351 36353 28
29083 36351 36354 28
29084 36351 36355 28
29085 36356 36357 28
29086 36356 36358 28
29087 36356 36359 28
29088 36356 36360 28
29089 36361 36362 28
29090 36361 36363 28
29091 36361 36364 28
29092 36361 36365 28
29093 36366 36367 28
29094 36366 36368 28
29095 36366 36369 28
29096 36366 36370 28
29097 36371 36372 28
29098 36371 36373 28
29099 36371 36374 28
29100 36371 36375 28
29101 36376 36377 28
29102 36376 36378 28
29103 36376 36379 28
29104 36376 36380 28
29105 36381 36382 28
29106 36381 36383 28
29107 36381 36384 28
29108 36381 36385 28
29109 36386 36387 28
29110 36386 36388 28
29111 36386 36389 28
29112 36386 36390 28
29113 36391 36392 28
29114 36391 36393 28
29115 36391 36394 28
29116 36391 36395 28
29117 36396 36397 28
29118 36396 36398 28
29119 36396 36399 28
29120 36396 36400 28
29121 36401 36402 28
29122 36401 36403 28
29123 36401 36404 28
29124 36401 36405 28
29125 36406 36407 28
29126 36406 36408 28
29127 36406 36409 28
29128 36406 36410 28
29129 36411 36412 28
29130 36411 36413 28
29131 36411 36414 28
29132 36411 36415 28
29133 36416 36417 28
29134 36416 36418 28
29135 36416 36419 28
29136 36416 36420 28
29137 36421 36422 28
29138 36421 36423 28
29139 36421 36424 28
29140 36421 36425 28
29141 36426 36427 28
29142 36426 36428 28
29143 36426 36429 28
29144 36426 36430 28
29145 36431 36432 28
29146 36431 36433 28
29147 36431 36434 28
29148 36431 36435 28
29149 36436 36437 28
29150 36436 36438 28
29151 36436 36439 28
29152 36436 36440 28
29153 36441 36442 28
29154 36441 36443 28
29155 36441 36444 28
29156 36441 36445 28
29157 36446 36447 28
29158 36446 36448 28
29159 36446 36449 28
29160 36446 36450 28
29161 36451 36452 28
29162 36451 36453 28
29163 36451 36454 28
29164 36451 36455 28
29165 36456 36457 28
29166 36456 36458 28
29167 36456 36459 28
29168 36456 36460 28
29169 36461 36462 28
29170 36461 36463 28
29171 36461 36464 28
29172 36461 36465 28
29173 36466 36467 28
29174 36466 36468 28
29175 36466 36469 28
29176 36466 36470 28
29177 36471 36472 28
29178 36471 36473 28
29179 36471 36474 28
29180 36471 36475 28
29181 36476 36477 28
29182 36476 36478 28
29183 36476 36479 28
29184 36476 36480 28
29185 36481 36482 28
29186 36481 36483 28
29187 36481 36484 28
29188 36481 36485 28
29189 36486 36487 28
29190 36486 36488 28
29191 36486 36489 28
29192 36486 36490 28
29193 36491 36492 28
29194 36491 36493 28
29195 36491 36494 28
29196 36491 36495 28
29197 36496 36497 28
29198 36496 36498 28
29199 36496 36499 28
29200 36496 36500 28
29201 36501 36502 28
29202 36501 36503 28
29203 36501 36504 28
29204 36501 36505 28
29205 36506 36507 28
29206 36506 36508 28
29207 36506 36509 28
29208 36506 36510 28
29209 36511 36512 28
29210 36511 36513 28
29211 36511 36514 28
29212 36511 36515 28
29213 36516 36517 28
29214 36516 36518 28
29215 36516 36519 28
29216 36516 36520 28
29217 36521 36522 28
29218 36521 36523 28
29219 36521 36524 28
29220 36521 36525 28
29221 36526 36527 28
29222 36526 36528 28
29223 36526 36529 28
29224 36526 36530 28
29225 36531 36532 28
29226 36531 36533 28
29227 36531 36534 28
29228 36531 36535 28
29229 36536 36537 28
29230 36536 36538 28
29231 36536 36539 28
29232 36536 36540 28
29233 36541 36542 28
29234 36541 36543 28
29235 36541 36544 28
29236 36541 36545 28
29237 36546 36547 28
29238 36546 36548 28
29239 36546 36549 28
29240 36546 36550 28
29241 36551 36552 28
29242 36551 36553 28
29243 36551 36554 28
29244 36551 36555 28
29245 36556 36557 28
29246 36556 36558 28
29247 36556 36559 28
29248 36556 36560 28
29249 36561 36562 28
29250 36561 36563 28
29251 36561 36564 28
29252 36561 36565 28
29253 36566 36567 28
29254 36566 36568 28
29255 36566 36569 28
29256 36566 36570 28
29257 36571 36572 28
29258 36571 36573 28
29259 36571 36574 28
29260 36571 36575 28
29261 36576 36577 28
29262 36576 36578 28
29263 36576 36579 28
29264 36576 36580 28
29265 36581 36582 28
29266 36581 36583 28
29267 36581 36584 28
29268 36581 36585 28
29269 36586 36587 28
29270 36586 36588 28
29271 36586 36589 28
29272 36586 36590 28
29273 36591 36592 28
29274 36591 36593 28
29275 36591 36594 28
29276 36591 36595 28
29277 36596 36597 28
29278 36596 36598 28
29279 36596 36599 28
29280 36596 36600 28
29281 36601 36602 28
29282 36601 36603 28
29283 36601 36604 28
29284 36601 36605 28
29285 36606 36607 28
29286 36606 36608 28
29287 36606 36609 28
29288 36606 36610 28
29289 36611 36612 28
29290 36611 36613 28
29291 36611 36614 28
29292 36611 36615 28
29293 36616 36617 28
29294 36616 36618 28
29295 36616 36619 28
29296 36616 36620 28
29297 36621 36622 28
29298 36621 36623 28
29299 36621 36624 28
29300 36621 36625 28
29301 36626 36627 28
29302 36626 36628 28
29303 36626 36629 28
29304 36626 36630 28
29305 36631 36632 28
29306 36631 36633 28
29307 36631 36634 28
29308 36631 36635 28
29309 36636 36637 28
29310 36636 36638 28
29311 36636 36639 28
29312 36636 36640 28
29313 36641 36642 28
29314 36641 36643 28
29315 36641 36644 28
29316 36641 36645 28
29317 36646 36647 28
29318 36646 36648 28
29319 36646 36649 28
29320 36646 36650 28
29321 36651 36652 28
29322 36651 36653 28
29323 36651 36654 28
29324 36651 36655 28
29325 36656 36657 28
29326 36656 36658 28
29327 36656 36659 28
29328 36656 36660 28
29329 36661 36662 28
29330 36661 36663 28
29331 36661 36664 28
29332 36661 36665 28
29333 36666 36667 28
29334 36666 36668 28
29335 36666 36669 28
29336 36666 36670 28
29337 36671 36672 28
29338 36671 36673 28
29339 36671 36674 28
29340 36671 36675 28
29341 36676 36677 28
29342 36676 36678 28
29343 36676 36679 28
29344 36676 36680 28
29345 36681 36682 28
29346 36681 36683 28
29347 36681 36684 28
29348 36681 36685 28
29349 36686 36687 28
29350 36686 36688 28
29351 36686 36689 28
29352 36686 36690 28
29353 36691 36692 28
29354 36691 36693 28
29355 36691 36694 28
29356 36691 36695 28
29357 36696 36697 28
29358 36696 36698 28
29359 36696 36699 28
29360 36696 36700 28
29361 36701 36702 28
29362 36701 36703 28
29363 36701 36704 28
29364 36701 36705 28
29365 36706 36707 28
29366 36706 36708 28
29367 36706 36709 28
29368 36706 36710 28
29369 36711 36712 28
29370 36711 36713 28
29371 36711 36714 28
29372 36711 36715 28
29373 36716 36717 28
29374 36716 36718 28
29375 36716 36719 28
29376 36716 36720 28
29377 36721 36722 28
29378 36721 36723 28
29379 36721 36724 28
29380 36721 36725 28
29381 36726 36727 28
29382 36726 36728 28
29383 36726 36729 28
29384 36726 36730 28
29385 36731 36732 28
29386 36731 36733 28
29387 36731 36734 28
29388 36731 36735 28
29389 36736 36737 28
29390 36736 36738 28
29391 36736 36739 28
29392 36736 36740 28
29393 36741 36742 28
29394 36741 36743 28
29395 36741 36744 28
29396 36741 36745 28
29397 36746 36747 28
29398 36746 36748 28
29399 36746 36749 28
29400 36746 36750 28
29401 36751 36752 28
29402 36751 36753 28
29403 36751 36754 28
29404 36751 36755 28
29405 36756 36757 28
29406 36756 36758 28
29407 36756 36759 28
29408 36756 36760 28
29409 36761 36762 28
29410 36761 36763 28
29411 36761 36764 28
29412 36761 36765 28
29413 36766 36767 28
29414 36766 36768 28
29415 36766 36769 28
29416 36766 36770 28
29417 36771 36772 28
29418 36771 36773 28
29419 36771 36774 28
29420 36771 36775 28
29421 36776 36777 28
29422 36776 36778 28
29423 36776 36779 28
29424 36776 36780 28
29425 36781 36782 28
29426 36781 36783 28
29427 36781 36784 28
29428 36781 36785 28
29429 36786 36787 28
29430 36786 36788 28
29431 36786 36789 28
29432 36786 36790 28
29433 36791 36792 28
29434 36791 36793 28
29435 36791 36794 28
29436 36791 36795 28
29437 36796 36797 28
29438 36796 36798 28
29439 36796 36799 28
29440 36796 36800 28
29441 36801 36802 28
29442 36801 36803 28
29443 36801 36804 28
29444 36801 36805 28
29445 36806 36807 28
29446 36806 36808 28
29447 36806 36809 28
29448 36806 36810 28
29449 36811 36812 28
29450 36811 36813 28
29451 36811 36814 28
29452 36811 36815 28
29453 36816 36817 28
29454 36816 36818 28
29455 36816 36819 28
29456 36816 36820 28
29457 36821 36822 28
29458 36821 36823 28
29459 36821 36824 28
29460 36821 36825 28
29461 36826 36827 28
29462 36826 36828 28
29463 36826 36829 28
29464 36826 36830 28
29465 36831 36832 28
29466 36831 36833 28
29467 36831 36834 28
29468 36831 36835 28
29469 36836 36837 28
29470 36836 36838 28
29471 36836 36839 28
29472 36836 36840 28
29473 36841 36842 28
29474 36841 36843 28
29475 36841 36844 28
29476 36841 36845 28
29477 36846 36847 28
29478 36846 36848 28
29479 36846 36849 28
29480 36846 36850 28
29481 36851 36852 28
29482 36851 36853 28
29483 36851 36854 28
29484 36851 36855 28
29485 36856 36857 28
29486 36856 36858 28
29487 36856 36859 28
29488 36856 36860 28
29489 36861 36862 28
29490 36861 36863 28
29491 36861 36864 28
29492 36861 36865 28
29493 36866 36867 28
29494 36866 36868 28
29495 36866 36869 28
29496 36866 36870 28
29497 36871 36872 28
29498 36871 36873 28
29499 36871 36874 28
29500 36871 36875 28
29501 36876 36877 28
29502 36876 36878 28
29503 36876 36879 28
29504 36876 36880 28
29505 36881 36882 28
29506 36881 36883 28
29507 36881 36884 28
29508 36881 36885 28
29509 36886 36887 28
29510 36886 36888 28
29511 36886 36889 28
29512 36886 36890 28
29513 36891 36892 28
29514 36891 36893 28
29515 36891 36894 28
29516 36891 36895 28
29517 36896 36897 28
29518 36896 36898 28
29519 36896 36899 28
29520 36896 36900 28
29521 36901 36902 28
29522 36901 36903 28
29523 36901 36904 28
29524 36901 36905 28
29525 36906 36907 28
29526 36906 36908 28
29527 36906 36909 28
29528 36906 36910 28
29529 36911 36912 28
29530 36911 36913 28
29531 36911 36914 28
29532 36911 36915 28
29533 36916 36917 28
29534 36916 36918 28
29535 36916 36919 28
29536 36916 36920 28
29537 36921 36922 28
29538 36921 36923 28
29539 36921 36924 28
29540 36921 36925 28
29541 36926 36927 28
29542 36926 36928 28
29543 36926 36929 28
29544 36926 36930 28
29545 36931 36932 28
29546 36931 36933 28
29547 36931 36934 28
29548 36931 36935 28
29549 36936 36937 28
29550 36936 36938 28
29551 36936 36939 28
29552 36936 36940 28
29553 36941 36942 28
29554 36941 36943 28
29555 36941 36944 28
29556 36941 36945 28
29557 36946 36947 28
29558 36946 36948 28
29559 36946 36949 28
29560 36946 36950 28
29561 36951 36952 28
29562 36951 36953 28
29563 36951 36954 28
29564 36951 36955 28
29565 36956 36957 28
29566 36956 36958 28
29567 36956 36959 28
29568 36956 36960 28
29569 36961 36962 28
29570 36961 36963 28
29571 36961 36964 28
29572 36961 36965 28
29573 36966 36967 28
29574 36966 36968 28
29575 36966 36969 28
29576 36966 36970 28
29577 36971 36972 28
29578 36971 36973 28
29579 36971 36974 28
29580 36971 36975 28
29581 36976 36977 28
29582 36976 36978 28
29583 36976 36979 28
29584 36976 36980 28
29585 36981 36982 28
29586 36981 36983 28
29587 36981 36984 28
29588 36981 36985 28
29589 36986 36987 28
29590 36986 36988 28
29591 36986 36989 28
29592 36986 36990 28
29593 36991 36992 28
29594 36991 36993 28
29595 36991 36994 28
29596 36991 36995 28
29597 36996 36997 28
29598 36996 36998 28
29599 36996 36999 28
29600 36996 37000 28
29601 37001 37002 28
29602 37001 37003 28
29603 37001 37004 28
29604 37001 37005 28
29605 37006 37007 28
29606 37006 37008 28
29607 37006 37009 28
29608 37006 37010 28
29609 37011 37012 28
29610 37011 37013 28
29611 37011 37014 28
29612 37011 37015 28
29613 37016 37017 28
29614 37016 37018 28
29615 37016 37019 28
29616 37016 37020 28
29617 37021 37022 28
29618 37021 37023 28
29619 37021 37024 28
29620 37021 37025 28
29621 37026 37027 28
29622 37026 37028 28
29623 37026 37029 28
29624 37026 37030 28
29625 37031 37032 28
29626 37031 37033 28
29627 37031 37034 28
29628 37031 37035 28
29629 37036 37037 28
29630 37036 37038 28
29631 37036 37039 28
29632 37036 37040 28
29633 37041 37042 28
29634 37041 37043 28
29635 37041 37044 28
29636 37041 37045 28
29637 37046 37047 28
29638 37046 37048 28
29639 37046 37049 28
29640 37046 37050 28
29641 37051 37052 28
29642 37051 37053 28
29643 37051 37054 28
29644 37051 37055 28
29645 37056 37057 28
29646 37056 37058 28
29647 37056 37059 28
29648 37056 37060 28
29649 37061 37062 28
29650 37061 37063 28
29651 37061 37064 28
29652 37061 37065 28
29653 37066 37067 28
29654 37066 37068 28
29655 37066 37069 28
29656 37066 37070 28
29657 37071 37072 28
29658 37071 37073 28
29659 37071 37074 28
29660 37071 37075 28
29661 37076 37077 28
29662 37076 37078 28
29663 37076 37079 28
29664 37076 37080 28
29665 37081 37082 28
29666 37081 37083 28
29667 37081 37084 28
29668 37081 37085 28
29669 37086 37087 28
29670 37086 37088 28
29671 37086 37089 28
29672 37086 37090 28
29673 37091 37092 28
29674 37091 37093 28
29675 37091 37094 28
29676 37091 37095 28
29677 37096 37097 28
29678 37096 37098 28
29679 37096 37099 28
29680 37096 37100 28
29681 37101 37102 28
29682 37101 37103 28
29683 37101 37104 28
29684 37101 37105 28
29685 37106 37107 28
29686 37106 37108 28
29687 37106 37109 28
29688 37106 37110 28
29689 37111 37112 28
29690 37111 37113 28
29691 37111 37114 28
29692 37111 37115 28
29693 37116 37117 28
29694 37116 37118 28
29695 37116 37119 28
29696 37116 37120 28
29697 37121 37122 28
29698 37121 37123 28
29699 37121 37124 28
29700 37121 37125 28
29701 37126 37127 28
29702 37126 37128 28
29703 37126 37129 28
29704 37126 37130 28
29705 37131 37132 28
29706 37131 37133 28
29707 37131 37134 28
29708 37131 37135 28
29709 37136 37137 28
29710 37136 37138 28
29711 37136 37139 28
29712 37136 37140 28
29713 37141 37142 28
29714 37141 37143 28
29715 37141 37144 28
29716 37141 37145 28
29717 37146 37147 28
29718 37146 37148 28
29719 37146 37149 28
29720 37146 37150 28
29721 37151 37152 28
29722 37151 37153 28
29723 37151 37154 28
29724 37151 37155 28
29725 37156 37157 28
29726 37156 37158 28
29727 37156 37159 28
29728 37156 37160 28
29729 37161 37162 28
29730 37161 37163 28
29731 37161 37164 28
29732 37161 37165 28
29733 37166 37167 28
29734 37166 37168 28
29735 37166 37169 28
29736 37166 37170 28
29737 37171 37172 28
29738 37171 37173 28
29739 37171 37174 28
29740 37171 37175 28
29741 37176 37177 28
29742 37176 37178 28
29743 37176 37179 28
29744 37176 37180 28
29745 37181 37182 28
29746 37181 37183 28
29747 37181 37184 28
29748 37181 37185 28
29749 37186 37187 28
29750 37186 37188 28
29751 37186 37189 28
29752 37186 37190 28
29753 37191 37192 28
29754 37191 37193 28
29755 37191 37194 28
29756 37191 37195 28
29757 37196 37197 28
29758 37196 37198 28
29759 37196 37199 28
29760 37196 37200 28
29761 37201 37202 28
29762 37201 37203 28
29763 37201 37204 28
29764 37201 37205 28
29765 37206 37207 28
29766 37206 37208 28
29767 37206 37209 28
29768 37206 37210 28
29769 37211 37212 28
29770 37211 37213 28
29771 37211 37214 28
29772 37211 37215 28
29773 37216 37217 28
29774 37216 37218 28
29775 37216 37219 28
29776 37216 37220 28
29777 37221 37222 28
29778 37221 37223 28
29779 37221 37224 28
29780 37221 37225 28
29781 37226 37227 28
29782 37226 37228 28
29783 37226 37229 28
29784 37226 37230 28
29785 37231 37232 28
29786 37231 37233 28
29787 37231 37234 28
29788 37231 37235 28
29789 37236 37237 28
29790 37236 37238 28
29791 37236 37239 28
29792 37236 37240 28
29793 37241 37242 28
29794 37241 37243 28
29795 37241 37244 28
29796 37241 37245 28
29797 37246 37247 28
29798 37246 37248 28
29799 37246 37249 28
29800 37246 37250 28
29801 37251 37252 28
29802 37251 37253 28
29803 37251 37254 28
29804 37251 37255 28
29805 37256 37257 28
29806 37256 37258 28
29807 37256 37259 28
29808 37256 37260 28
29809 37261 37262 28
29810 37261 37263 28
29811 37261 37264 28
29812 37261 37265 28
29813 37266 37267 28
29814 37266 37268 28
29815 37266 37269 28
29816 37266 37270 28
29817 37271 37272 28
29818 37271 37273 28
29819 37271 37274 28
29820 37271 37275 28
29821 37276 37277 28
29822 37276 37278 28
29823 37276 37279 28
29824 37276 37280 28
29825 37281 37282 28
29826 37281 37283 28
29827 37281 37284 28
29828 37281 37285 28
29829 37286 37287 28
29830 37286 37288 28
29831 37286 37289 28
29832 37286 37290 28
29833 37291 37292 28
29834 37291 37293 28
29835 37291 37294 28
29836 37291 37295 28
29837 37296 37297 28
29838 37296 37298 28
29839 37296 37299 28
29840 37296 37300 28
29841 37301 37302 28
29842 37301 37303 28
29843 37301 37304 28
29844 37301 37305 28
29845 37306 37307 28
29846 37306 37308 28
29847 37306 37309 28
29848 37306 37310 28
29849 37311 37312 28
29850 37311 37313 28
29851 37311 37314 28
29852 37311 37315 28
29853 37316 37317 28
29854 37316 37318 28
29855 37316 37319 28
29856 37316 37320 28
29857 37321 37322 28
29858 37321 37323 28
29859 37321 37324 28
29860 37321 37325 28
29861 37326 37327 28
29862 37326 37328 28
29863 37326 37329 28
29864 37326 37330 28
29865 37331 37332 28
29866 37331 37333 28
29867 37331 37334 28
29868 37331 37335 28
29869 37336 37337 28
29870 37336 37338 28
29871 37336 37339 28
29872 37336 37340 28
29873 37341 37342 28
29874 37341 37343 28
29875 37341 37344 28
29876 37341 37345 28
29877 37346 37347 28
29878 37346 37348 28
29879 37346 37349 28
29880 37346 37350 28
29881 37351 37352 28
29882 37351 37353 28
29883 37351 37354 28
29884 37351 37355 28
29885 37356 37357 28
29886 37356 37358 28
29887 37356 37359 28
29888 37356 37360 28
29889 37361 37362 28
29890 37361 37363 28
29891 37361 37364 28
29892 37361 37365 28
29893 37366 37367 28
29894 37366 37368 28
29895 37366 37369 28
29896 37366 37370 28
29897 37371 37372 28
29898 37371 37373 28
29899 37371 37374 28
29900 37371 37375 28
29901 37376 37377 28
29902 37376 37378 28
29903 37376 37379 28
29904 37376 37380 28
29905 37381 37382 28
29906 37381 37383 28
29907 37381 37384 28
29908 37381 37385 28
29909 37386 37387 28
29910 37386 37388 28
29911 37386 37389 28
29912 37386 37390 28
29913 37391 37392 28
29914 37391 37393 28
29915 37391 37394 28
29916 37391 37395 28
29917 37396 37397 28
29918 37396 37398 28
29919 37396 37399 28
29920 37396 37400 28
29921 37401 37402 28
29922 37401 37403 28
29923 37401 37404 28
29924 37401 37405 28
29925 37406 37407 28
29926 37406 37408 28
29927 37406 37409 28
29928 37406 37410 28
29929 37411 37412 28
29930 37411 37413 28
29931 37411 37414 28
29932 37411 37415 28
29933 37416 37417 28
29934 37416 37418 28
29935 37416 37419 28
29936 37416 37420 28
29937 37421 37422 28
29938 37421 37423 28
29939 37421 37424 28
29940 37421 37425 28
29941 37426 37427 28
29942 37426 37428 28
29943 37426 37429 28
29944 37426 37430 28
29945 37431 37432 28
29946 37431 37433 28
29947 37431 37434 28
29948 37431 37435 28
29949 37436 37437 28
29950 37436 37438 28
29951 37436 37439 28
29952 37436 37440 28
29953 37441 37442 28
29954 37441 37443 28
29955 37441 37444 28
29956 37441 37445 28
29957 37446 37447 28
29958 37446 37448 28
29959 37446 37449 28
29960 37446 37450 28
29961 37451 37452 28
29962 37451 37453 28
29963 37451 37454 28
29964 37451 37455 28
29965 37456 37457 28
29966 37456 37458 28
29967 37456 37459 28
29968 37456 37460 28
29969 37461 37462 28
29970 37461 37463 28
29971 37461 37464 28
29972 37461 37465 28
29973 37466 37467 28
29974 37466 37468 28
29975 37466 37469 28
29976 37466 37470 28
29977 37471 37472 28
29978 37471 37473 28
29979 37471 37474 28
29980 37471 37475 28
29981 37476 37477 28
29982 37476 37478 28
29983 37476 37479 28
29984 37476 37480 28
29985 37481 37482 28
29986 37481 37483 28
29987 37481 37484 28
29988 37481 37485 28
29989 37486 37487 28
29990 37486 37488 28
29991 37486 37489 28
29992 37486 37490 28
29993 37491 37492 28
29994 37491 37493 28
29995 37491 37494 28
29996 37491 37495 28
29997 37496 37497 28
29998 37496 37498 28
29999 37496 37499 28
30000 37496 37500 28
@<TRIPOS>CRYSIN
185.51055360526777 185.51055360526777 185.51055360526777 90 90 90 1 1
